<?xml version="1.0" encoding="UTF-8"?>
<edges xmlns:xsi="http://www.w3.org/2001/XMLSchema-instance" 
xsi:noNamespaceSchemaLocation="http://sumo.dlr.de/xsd/edges_file.xsd">
    <edge id="26001" from="26" to="1" priority="80" numLanes="1" speed="17" />
    <edge id="1026" from="1" to="26" priority="80" numLanes="1" speed="26" />
    <edge id="27002" from="27" to="2" priority="80" numLanes="1" speed="17" />
    <edge id="2027" from="2" to="27" priority="80" numLanes="1" speed="13" />
    <edge id="28003" from="28" to="3" priority="80" numLanes="1" speed="19" />
    <edge id="3028" from="3" to="28" priority="80" numLanes="1" speed="9" />
    <edge id="29004" from="29" to="4" priority="80" numLanes="1" speed="13" />
    <edge id="4029" from="4" to="29" priority="80" numLanes="1" speed="7" />
    <edge id="30005" from="30" to="5" priority="80" numLanes="1" speed="23" />
    <edge id="5030" from="5" to="30" priority="80" numLanes="1" speed="14" />
    <edge id="31005" from="31" to="5" priority="80" numLanes="1" speed="15" />
    <edge id="5031" from="5" to="31" priority="80" numLanes="1" speed="18" />
    <edge id="32010" from="32" to="10" priority="80" numLanes="1" speed="7" />
    <edge id="10032" from="10" to="32" priority="80" numLanes="1" speed="26" />
    <edge id="33015" from="33" to="15" priority="80" numLanes="1" speed="25" />
    <edge id="15033" from="15" to="33" priority="80" numLanes="1" speed="15" />
    <edge id="34020" from="34" to="20" priority="80" numLanes="1" speed="17" />
    <edge id="20034" from="20" to="34" priority="80" numLanes="1" speed="15" />
    <edge id="35025" from="35" to="25" priority="80" numLanes="1" speed="16" />
    <edge id="25035" from="25" to="35" priority="80" numLanes="1" speed="17" />
    <edge id="36025" from="36" to="25" priority="80" numLanes="1" speed="20" />
    <edge id="25036" from="25" to="36" priority="80" numLanes="1" speed="25" />
    <edge id="37024" from="37" to="24" priority="80" numLanes="1" speed="8" />
    <edge id="24037" from="24" to="37" priority="80" numLanes="1" speed="14" />
    <edge id="38023" from="38" to="23" priority="80" numLanes="1" speed="28" />
    <edge id="23038" from="23" to="38" priority="80" numLanes="1" speed="27" />
    <edge id="39022" from="39" to="22" priority="80" numLanes="1" speed="26" />
    <edge id="22039" from="22" to="39" priority="80" numLanes="1" speed="23" />
    <edge id="40021" from="40" to="21" priority="80" numLanes="1" speed="15" />
    <edge id="21040" from="21" to="40" priority="80" numLanes="1" speed="14" />
    <edge id="41021" from="41" to="21" priority="80" numLanes="1" speed="28" />
    <edge id="21041" from="21" to="41" priority="80" numLanes="1" speed="14" />
    <edge id="42016" from="42" to="16" priority="80" numLanes="1" speed="13" />
    <edge id="16042" from="16" to="42" priority="80" numLanes="1" speed="22" />
    <edge id="43011" from="43" to="11" priority="80" numLanes="1" speed="12" />
    <edge id="11043" from="11" to="43" priority="80" numLanes="1" speed="15" />
    <edge id="44006" from="44" to="6" priority="80" numLanes="1" speed="23" />
    <edge id="6044" from="6" to="44" priority="80" numLanes="1" speed="21" />
    <edge id="45001" from="45" to="1" priority="80" numLanes="1" speed="10" />
    <edge id="1045" from="1" to="45" priority="80" numLanes="1" speed="19" />
    <edge id="1002" from="1" to="2" priority="80" numLanes="1" speed="28" />
    <edge id="2001" from="2" to="1" priority="80" numLanes="1" speed="12" />
    <edge id="2003" from="2" to="3" priority="80" numLanes="1" speed="11" />
    <edge id="3002" from="3" to="2" priority="80" numLanes="1" speed="27" />
    <edge id="3004" from="3" to="4" priority="80" numLanes="1" speed="26" />
    <edge id="4003" from="4" to="3" priority="80" numLanes="1" speed="20" />
    <edge id="4005" from="4" to="5" priority="80" numLanes="1" speed="20" />
    <edge id="5004" from="5" to="4" priority="80" numLanes="1" speed="6" />
    <edge id="6007" from="6" to="7" priority="80" numLanes="1" speed="5" />
    <edge id="7006" from="7" to="6" priority="80" numLanes="1" speed="14" />
    <edge id="7008" from="7" to="8" priority="80" numLanes="1" speed="10" />
    <edge id="8007" from="8" to="7" priority="80" numLanes="1" speed="19" />
    <edge id="8009" from="8" to="9" priority="80" numLanes="1" speed="8" />
    <edge id="9008" from="9" to="8" priority="80" numLanes="1" speed="8" />
    <edge id="9010" from="9" to="10" priority="80" numLanes="1" speed="10" />
    <edge id="10009" from="10" to="9" priority="80" numLanes="1" speed="14" />
    <edge id="11012" from="11" to="12" priority="80" numLanes="1" speed="16" />
    <edge id="12011" from="12" to="11" priority="80" numLanes="1" speed="12" />
    <edge id="12013" from="12" to="13" priority="80" numLanes="1" speed="17" />
    <edge id="13012" from="13" to="12" priority="80" numLanes="1" speed="29" />
    <edge id="13014" from="13" to="14" priority="80" numLanes="1" speed="27" />
    <edge id="14013" from="14" to="13" priority="80" numLanes="1" speed="9" />
    <edge id="14015" from="14" to="15" priority="80" numLanes="1" speed="16" />
    <edge id="15014" from="15" to="14" priority="80" numLanes="1" speed="26" />
    <edge id="16017" from="16" to="17" priority="80" numLanes="1" speed="27" />
    <edge id="17016" from="17" to="16" priority="80" numLanes="1" speed="20" />
    <edge id="17018" from="17" to="18" priority="80" numLanes="1" speed="21" />
    <edge id="18017" from="18" to="17" priority="80" numLanes="1" speed="12" />
    <edge id="18019" from="18" to="19" priority="80" numLanes="1" speed="6" />
    <edge id="19018" from="19" to="18" priority="80" numLanes="1" speed="17" />
    <edge id="19020" from="19" to="20" priority="80" numLanes="1" speed="14" />
    <edge id="20019" from="20" to="19" priority="80" numLanes="1" speed="26" />
    <edge id="21022" from="21" to="22" priority="80" numLanes="1" speed="18" />
    <edge id="22021" from="22" to="21" priority="80" numLanes="1" speed="5" />
    <edge id="22023" from="22" to="23" priority="80" numLanes="1" speed="20" />
    <edge id="23022" from="23" to="22" priority="80" numLanes="1" speed="5" />
    <edge id="23024" from="23" to="24" priority="80" numLanes="1" speed="27" />
    <edge id="24023" from="24" to="23" priority="80" numLanes="1" speed="21" />
    <edge id="24025" from="24" to="25" priority="80" numLanes="1" speed="5" />
    <edge id="25024" from="25" to="24" priority="80" numLanes="1" speed="14" />
    <edge id="1006" from="1" to="6" priority="80" numLanes="1" speed="22" />
    <edge id="6001" from="6" to="1" priority="80" numLanes="1" speed="22" />
    <edge id="6011" from="6" to="11" priority="80" numLanes="1" speed="5" />
    <edge id="11006" from="11" to="6" priority="80" numLanes="1" speed="25" />
    <edge id="11016" from="11" to="16" priority="80" numLanes="1" speed="9" />
    <edge id="16011" from="16" to="11" priority="80" numLanes="1" speed="26" />
    <edge id="16021" from="16" to="21" priority="80" numLanes="1" speed="19" />
    <edge id="21016" from="21" to="16" priority="80" numLanes="1" speed="5" />
    <edge id="2007" from="2" to="7" priority="80" numLanes="1" speed="23" />
    <edge id="7002" from="7" to="2" priority="80" numLanes="1" speed="11" />
    <edge id="7012" from="7" to="12" priority="80" numLanes="1" speed="11" />
    <edge id="12007" from="12" to="7" priority="80" numLanes="1" speed="15" />
    <edge id="12017" from="12" to="17" priority="80" numLanes="1" speed="7" />
    <edge id="17012" from="17" to="12" priority="80" numLanes="1" speed="21" />
    <edge id="17022" from="17" to="22" priority="80" numLanes="1" speed="6" />
    <edge id="22017" from="22" to="17" priority="80" numLanes="1" speed="10" />
    <edge id="3008" from="3" to="8" priority="80" numLanes="1" speed="20" />
    <edge id="8003" from="8" to="3" priority="80" numLanes="1" speed="7" />
    <edge id="8013" from="8" to="13" priority="80" numLanes="1" speed="14" />
    <edge id="13008" from="13" to="8" priority="80" numLanes="1" speed="10" />
    <edge id="13018" from="13" to="18" priority="80" numLanes="1" speed="19" />
    <edge id="18013" from="18" to="13" priority="80" numLanes="1" speed="15" />
    <edge id="18023" from="18" to="23" priority="80" numLanes="1" speed="18" />
    <edge id="23018" from="23" to="18" priority="80" numLanes="1" speed="5" />
    <edge id="4009" from="4" to="9" priority="80" numLanes="1" speed="9" />
    <edge id="9004" from="9" to="4" priority="80" numLanes="1" speed="24" />
    <edge id="9014" from="9" to="14" priority="80" numLanes="1" speed="26" />
    <edge id="14009" from="14" to="9" priority="80" numLanes="1" speed="24" />
    <edge id="14019" from="14" to="19" priority="80" numLanes="1" speed="29" />
    <edge id="19014" from="19" to="14" priority="80" numLanes="1" speed="12" />
    <edge id="19024" from="19" to="24" priority="80" numLanes="1" speed="13" />
    <edge id="24019" from="24" to="19" priority="80" numLanes="1" speed="14" />
    <edge id="5010" from="5" to="10" priority="80" numLanes="1" speed="16" />
    <edge id="10005" from="10" to="5" priority="80" numLanes="1" speed="21" />
    <edge id="10015" from="10" to="15" priority="80" numLanes="1" speed="14" />
    <edge id="15010" from="15" to="10" priority="80" numLanes="1" speed="12" />
    <edge id="15020" from="15" to="20" priority="80" numLanes="1" speed="15" />
    <edge id="20015" from="20" to="15" priority="80" numLanes="1" speed="7" />
    <edge id="20025" from="20" to="25" priority="80" numLanes="1" speed="20" />
    <edge id="25020" from="25" to="20" priority="80" numLanes="1" speed="9" />
</edges>
