<routes>
        <vType id="typeWE" accel="0.8" decel="4.5" sigma="0.5" length="5" minGap="2.5" maxSpeed="16.67" guiShape="passenger"/>
        <vType id="typeNS" accel="0.8" decel="4.5" sigma="0.5" length="7" minGap="3" maxSpeed="25" guiShape="bus"/>

        <route id="right" edges="51o 1i 2o 52i" />
        <route id="left" edges="52o 2i 1o 51i" />
        <route id="down" edges="54o 4i 3o 53i" />
    <vehicle id="left_0" type="typeWE" route="left" depart="0" />
    <vehicle id="left_1" type="typeWE" route="left" depart="2" />
    <vehicle id="right_2" type="typeWE" route="right" depart="3" />
    <vehicle id="right_3" type="typeWE" route="right" depart="4" />
    <vehicle id="left_4" type="typeWE" route="left" depart="6" />
    <vehicle id="right_5" type="typeWE" route="right" depart="9" />
    <vehicle id="left_6" type="typeWE" route="left" depart="22" />
    <vehicle id="left_7" type="typeWE" route="left" depart="29" />
    <vehicle id="left_8" type="typeWE" route="left" depart="31" />
    <vehicle id="left_9" type="typeWE" route="left" depart="33" />
    <vehicle id="left_10" type="typeWE" route="left" depart="41" />
    <vehicle id="right_11" type="typeWE" route="right" depart="42" />
    <vehicle id="left_12" type="typeWE" route="left" depart="45" />
    <vehicle id="left_13" type="typeWE" route="left" depart="53" />
    <vehicle id="right_14" type="typeWE" route="right" depart="55" />
    <vehicle id="right_15" type="typeWE" route="right" depart="61" />
    <vehicle id="right_16" type="typeWE" route="right" depart="69" />
    <vehicle id="right_17" type="typeWE" route="right" depart="84" />
    <vehicle id="left_18" type="typeWE" route="left" depart="85" />
    <vehicle id="down_19" type="typeNS" route="down" depart="89" color="1,0,0"/>
    <vehicle id="down_20" type="typeNS" route="down" depart="96" color="1,0,0"/>
    <vehicle id="right_21" type="typeWE" route="right" depart="99" />
    <vehicle id="left_22" type="typeWE" route="left" depart="99" />
    <vehicle id="right_23" type="typeWE" route="right" depart="108" />
    <vehicle id="right_24" type="typeWE" route="right" depart="114" />
    <vehicle id="down_25" type="typeNS" route="down" depart="122" color="1,0,0"/>
    <vehicle id="right_26" type="typeWE" route="right" depart="125" />
    <vehicle id="left_27" type="typeWE" route="left" depart="131" />
    <vehicle id="left_28" type="typeWE" route="left" depart="135" />
    <vehicle id="left_29" type="typeWE" route="left" depart="138" />
    <vehicle id="left_30" type="typeWE" route="left" depart="142" />
    <vehicle id="right_31" type="typeWE" route="right" depart="145" />
    <vehicle id="left_32" type="typeWE" route="left" depart="153" />
    <vehicle id="left_33" type="typeWE" route="left" depart="156" />
    <vehicle id="left_34" type="typeWE" route="left" depart="160" />
    <vehicle id="left_35" type="typeWE" route="left" depart="164" />
    <vehicle id="right_36" type="typeWE" route="right" depart="167" />
    <vehicle id="right_37" type="typeWE" route="right" depart="168" />
    <vehicle id="left_38" type="typeWE" route="left" depart="169" />
    <vehicle id="left_39" type="typeWE" route="left" depart="172" />
    <vehicle id="down_40" type="typeNS" route="down" depart="172" color="1,0,0"/>
    <vehicle id="right_41" type="typeWE" route="right" depart="176" />
    <vehicle id="right_42" type="typeWE" route="right" depart="181" />
    <vehicle id="right_43" type="typeWE" route="right" depart="183" />
    <vehicle id="left_44" type="typeWE" route="left" depart="194" />
    <vehicle id="left_45" type="typeWE" route="left" depart="196" />
    <vehicle id="left_46" type="typeWE" route="left" depart="199" />
    <vehicle id="right_47" type="typeWE" route="right" depart="200" />
    <vehicle id="left_48" type="typeWE" route="left" depart="212" />
    <vehicle id="right_49" type="typeWE" route="right" depart="217" />
    <vehicle id="left_50" type="typeWE" route="left" depart="219" />
    <vehicle id="right_51" type="typeWE" route="right" depart="228" />
    <vehicle id="left_52" type="typeWE" route="left" depart="234" />
    <vehicle id="left_53" type="typeWE" route="left" depart="238" />
    <vehicle id="right_54" type="typeWE" route="right" depart="240" />
    <vehicle id="left_55" type="typeWE" route="left" depart="258" />
    <vehicle id="left_56" type="typeWE" route="left" depart="272" />
    <vehicle id="left_57" type="typeWE" route="left" depart="275" />
    <vehicle id="right_58" type="typeWE" route="right" depart="284" />
    <vehicle id="right_59" type="typeWE" route="right" depart="286" />
    <vehicle id="right_60" type="typeWE" route="right" depart="288" />
    <vehicle id="right_61" type="typeWE" route="right" depart="291" />
    <vehicle id="right_62" type="typeWE" route="right" depart="294" />
    <vehicle id="down_63" type="typeNS" route="down" depart="318" color="1,0,0"/>
    <vehicle id="right_64" type="typeWE" route="right" depart="322" />
    <vehicle id="left_65" type="typeWE" route="left" depart="330" />
    <vehicle id="down_66" type="typeNS" route="down" depart="331" color="1,0,0"/>
    <vehicle id="left_67" type="typeWE" route="left" depart="333" />
    <vehicle id="down_68" type="typeNS" route="down" depart="337" color="1,0,0"/>
    <vehicle id="left_69" type="typeWE" route="left" depart="339" />
    <vehicle id="right_70" type="typeWE" route="right" depart="342" />
    <vehicle id="left_71" type="typeWE" route="left" depart="344" />
    <vehicle id="down_72" type="typeNS" route="down" depart="344" color="1,0,0"/>
    <vehicle id="left_73" type="typeWE" route="left" depart="346" />
    <vehicle id="right_74" type="typeWE" route="right" depart="354" />
    <vehicle id="left_75" type="typeWE" route="left" depart="364" />
    <vehicle id="right_76" type="typeWE" route="right" depart="375" />
    <vehicle id="down_77" type="typeNS" route="down" depart="377" color="1,0,0"/>
    <vehicle id="down_78" type="typeNS" route="down" depart="379" color="1,0,0"/>
    <vehicle id="right_79" type="typeWE" route="right" depart="383" />
    <vehicle id="left_80" type="typeWE" route="left" depart="388" />
    <vehicle id="left_81" type="typeWE" route="left" depart="389" />
    <vehicle id="left_82" type="typeWE" route="left" depart="391" />
    <vehicle id="right_83" type="typeWE" route="right" depart="394" />
    <vehicle id="right_84" type="typeWE" route="right" depart="395" />
    <vehicle id="down_85" type="typeNS" route="down" depart="397" color="1,0,0"/>
    <vehicle id="right_86" type="typeWE" route="right" depart="412" />
    <vehicle id="left_87" type="typeWE" route="left" depart="413" />
    <vehicle id="left_88" type="typeWE" route="left" depart="415" />
    <vehicle id="left_89" type="typeWE" route="left" depart="420" />
    <vehicle id="right_90" type="typeWE" route="right" depart="427" />
    <vehicle id="down_91" type="typeNS" route="down" depart="457" color="1,0,0"/>
    <vehicle id="right_92" type="typeWE" route="right" depart="458" />
    <vehicle id="down_93" type="typeNS" route="down" depart="459" color="1,0,0"/>
    <vehicle id="down_94" type="typeNS" route="down" depart="463" color="1,0,0"/>
    <vehicle id="right_95" type="typeWE" route="right" depart="464" />
    <vehicle id="right_96" type="typeWE" route="right" depart="467" />
    <vehicle id="left_97" type="typeWE" route="left" depart="469" />
    <vehicle id="left_98" type="typeWE" route="left" depart="472" />
    <vehicle id="right_99" type="typeWE" route="right" depart="473" />
    <vehicle id="left_100" type="typeWE" route="left" depart="476" />
    <vehicle id="right_101" type="typeWE" route="right" depart="479" />
    <vehicle id="right_102" type="typeWE" route="right" depart="482" />
    <vehicle id="left_103" type="typeWE" route="left" depart="483" />
    <vehicle id="right_104" type="typeWE" route="right" depart="484" />
    <vehicle id="left_105" type="typeWE" route="left" depart="492" />
    <vehicle id="right_106" type="typeWE" route="right" depart="494" />
    <vehicle id="left_107" type="typeWE" route="left" depart="496" />
    <vehicle id="right_108" type="typeWE" route="right" depart="502" />
    <vehicle id="left_109" type="typeWE" route="left" depart="514" />
    <vehicle id="down_110" type="typeNS" route="down" depart="518" color="1,0,0"/>
    <vehicle id="right_111" type="typeWE" route="right" depart="523" />
    <vehicle id="left_112" type="typeWE" route="left" depart="527" />
    <vehicle id="right_113" type="typeWE" route="right" depart="536" />
    <vehicle id="left_114" type="typeWE" route="left" depart="536" />
    <vehicle id="left_115" type="typeWE" route="left" depart="541" />
    <vehicle id="left_116" type="typeWE" route="left" depart="547" />
    <vehicle id="left_117" type="typeWE" route="left" depart="552" />
    <vehicle id="left_118" type="typeWE" route="left" depart="554" />
    <vehicle id="right_119" type="typeWE" route="right" depart="565" />
    <vehicle id="down_120" type="typeNS" route="down" depart="573" color="1,0,0"/>
    <vehicle id="left_121" type="typeWE" route="left" depart="578" />
    <vehicle id="left_122" type="typeWE" route="left" depart="579" />
    <vehicle id="left_123" type="typeWE" route="left" depart="582" />
    <vehicle id="left_124" type="typeWE" route="left" depart="602" />
    <vehicle id="left_125" type="typeWE" route="left" depart="606" />
    <vehicle id="right_126" type="typeWE" route="right" depart="612" />
    <vehicle id="down_127" type="typeNS" route="down" depart="624" color="1,0,0"/>
    <vehicle id="left_128" type="typeWE" route="left" depart="634" />
    <vehicle id="left_129" type="typeWE" route="left" depart="635" />
    <vehicle id="right_130" type="typeWE" route="right" depart="636" />
    <vehicle id="left_131" type="typeWE" route="left" depart="639" />
    <vehicle id="left_132" type="typeWE" route="left" depart="641" />
    <vehicle id="right_133" type="typeWE" route="right" depart="644" />
    <vehicle id="left_134" type="typeWE" route="left" depart="646" />
    <vehicle id="down_135" type="typeNS" route="down" depart="653" color="1,0,0"/>
    <vehicle id="right_136" type="typeWE" route="right" depart="654" />
    <vehicle id="left_137" type="typeWE" route="left" depart="659" />
    <vehicle id="left_138" type="typeWE" route="left" depart="660" />
    <vehicle id="left_139" type="typeWE" route="left" depart="661" />
    <vehicle id="left_140" type="typeWE" route="left" depart="663" />
    <vehicle id="right_141" type="typeWE" route="right" depart="668" />
    <vehicle id="left_142" type="typeWE" route="left" depart="678" />
    <vehicle id="left_143" type="typeWE" route="left" depart="683" />
    <vehicle id="left_144" type="typeWE" route="left" depart="689" />
    <vehicle id="right_145" type="typeWE" route="right" depart="701" />
    <vehicle id="right_146" type="typeWE" route="right" depart="704" />
    <vehicle id="down_147" type="typeNS" route="down" depart="706" color="1,0,0"/>
    <vehicle id="left_148" type="typeWE" route="left" depart="707" />
    <vehicle id="down_149" type="typeNS" route="down" depart="708" color="1,0,0"/>
    <vehicle id="left_150" type="typeWE" route="left" depart="716" />
    <vehicle id="left_151" type="typeWE" route="left" depart="717" />
    <vehicle id="down_152" type="typeNS" route="down" depart="717" color="1,0,0"/>
    <vehicle id="right_153" type="typeWE" route="right" depart="720" />
    <vehicle id="left_154" type="typeWE" route="left" depart="722" />
    <vehicle id="right_155" type="typeWE" route="right" depart="724" />
    <vehicle id="right_156" type="typeWE" route="right" depart="731" />
    <vehicle id="down_157" type="typeNS" route="down" depart="733" color="1,0,0"/>
    <vehicle id="right_158" type="typeWE" route="right" depart="738" />
    <vehicle id="left_159" type="typeWE" route="left" depart="740" />
    <vehicle id="left_160" type="typeWE" route="left" depart="743" />
    <vehicle id="right_161" type="typeWE" route="right" depart="744" />
    <vehicle id="right_162" type="typeWE" route="right" depart="746" />
    <vehicle id="left_163" type="typeWE" route="left" depart="749" />
    <vehicle id="left_164" type="typeWE" route="left" depart="768" />
    <vehicle id="left_165" type="typeWE" route="left" depart="774" />
    <vehicle id="down_166" type="typeNS" route="down" depart="776" color="1,0,0"/>
    <vehicle id="down_167" type="typeNS" route="down" depart="780" color="1,0,0"/>
    <vehicle id="down_168" type="typeNS" route="down" depart="791" color="1,0,0"/>
    <vehicle id="left_169" type="typeWE" route="left" depart="801" />
    <vehicle id="right_170" type="typeWE" route="right" depart="808" />
    <vehicle id="down_171" type="typeNS" route="down" depart="808" color="1,0,0"/>
    <vehicle id="right_172" type="typeWE" route="right" depart="812" />
    <vehicle id="left_173" type="typeWE" route="left" depart="812" />
    <vehicle id="right_174" type="typeWE" route="right" depart="826" />
    <vehicle id="left_175" type="typeWE" route="left" depart="836" />
    <vehicle id="down_176" type="typeNS" route="down" depart="838" color="1,0,0"/>
    <vehicle id="right_177" type="typeWE" route="right" depart="841" />
    <vehicle id="left_178" type="typeWE" route="left" depart="845" />
    <vehicle id="down_179" type="typeNS" route="down" depart="847" color="1,0,0"/>
    <vehicle id="left_180" type="typeWE" route="left" depart="854" />
    <vehicle id="right_181" type="typeWE" route="right" depart="856" />
    <vehicle id="right_182" type="typeWE" route="right" depart="858" />
    <vehicle id="left_183" type="typeWE" route="left" depart="862" />
    <vehicle id="left_184" type="typeWE" route="left" depart="865" />
    <vehicle id="left_185" type="typeWE" route="left" depart="868" />
    <vehicle id="right_186" type="typeWE" route="right" depart="879" />
    <vehicle id="left_187" type="typeWE" route="left" depart="879" />
    <vehicle id="right_188" type="typeWE" route="right" depart="880" />
    <vehicle id="left_189" type="typeWE" route="left" depart="880" />
    <vehicle id="right_190" type="typeWE" route="right" depart="887" />
    <vehicle id="left_191" type="typeWE" route="left" depart="888" />
    <vehicle id="down_192" type="typeNS" route="down" depart="895" color="1,0,0"/>
    <vehicle id="right_193" type="typeWE" route="right" depart="907" />
    <vehicle id="down_194" type="typeNS" route="down" depart="911" color="1,0,0"/>
    <vehicle id="right_195" type="typeWE" route="right" depart="916" />
    <vehicle id="left_196" type="typeWE" route="left" depart="918" />
    <vehicle id="right_197" type="typeWE" route="right" depart="921" />
    <vehicle id="right_198" type="typeWE" route="right" depart="922" />
    <vehicle id="left_199" type="typeWE" route="left" depart="924" />
    <vehicle id="right_200" type="typeWE" route="right" depart="939" />
    <vehicle id="down_201" type="typeNS" route="down" depart="941" color="1,0,0"/>
    <vehicle id="left_202" type="typeWE" route="left" depart="945" />
    <vehicle id="right_203" type="typeWE" route="right" depart="948" />
    <vehicle id="right_204" type="typeWE" route="right" depart="950" />
    <vehicle id="left_205" type="typeWE" route="left" depart="952" />
    <vehicle id="left_206" type="typeWE" route="left" depart="954" />
    <vehicle id="left_207" type="typeWE" route="left" depart="965" />
    <vehicle id="down_208" type="typeNS" route="down" depart="969" color="1,0,0"/>
    <vehicle id="left_209" type="typeWE" route="left" depart="973" />
    <vehicle id="down_210" type="typeNS" route="down" depart="974" color="1,0,0"/>
    <vehicle id="left_211" type="typeWE" route="left" depart="977" />
    <vehicle id="right_212" type="typeWE" route="right" depart="989" />
    <vehicle id="left_213" type="typeWE" route="left" depart="993" />
    <vehicle id="down_214" type="typeNS" route="down" depart="996" color="1,0,0"/>
    <vehicle id="left_215" type="typeWE" route="left" depart="1001" />
    <vehicle id="right_216" type="typeWE" route="right" depart="1003" />
    <vehicle id="right_217" type="typeWE" route="right" depart="1005" />
    <vehicle id="left_218" type="typeWE" route="left" depart="1006" />
    <vehicle id="right_219" type="typeWE" route="right" depart="1011" />
    <vehicle id="left_220" type="typeWE" route="left" depart="1014" />
    <vehicle id="left_221" type="typeWE" route="left" depart="1015" />
    <vehicle id="left_222" type="typeWE" route="left" depart="1017" />
    <vehicle id="left_223" type="typeWE" route="left" depart="1026" />
    <vehicle id="left_224" type="typeWE" route="left" depart="1034" />
    <vehicle id="right_225" type="typeWE" route="right" depart="1043" />
    <vehicle id="right_226" type="typeWE" route="right" depart="1047" />
    <vehicle id="right_227" type="typeWE" route="right" depart="1049" />
    <vehicle id="down_228" type="typeNS" route="down" depart="1056" color="1,0,0"/>
    <vehicle id="right_229" type="typeWE" route="right" depart="1061" />
    <vehicle id="right_230" type="typeWE" route="right" depart="1068" />
    <vehicle id="right_231" type="typeWE" route="right" depart="1069" />
    <vehicle id="left_232" type="typeWE" route="left" depart="1070" />
    <vehicle id="right_233" type="typeWE" route="right" depart="1078" />
    <vehicle id="left_234" type="typeWE" route="left" depart="1085" />
    <vehicle id="left_235" type="typeWE" route="left" depart="1090" />
    <vehicle id="right_236" type="typeWE" route="right" depart="1093" />
    <vehicle id="left_237" type="typeWE" route="left" depart="1097" />
    <vehicle id="left_238" type="typeWE" route="left" depart="1099" />
    <vehicle id="left_239" type="typeWE" route="left" depart="1104" />
    <vehicle id="down_240" type="typeNS" route="down" depart="1109" color="1,0,0"/>
    <vehicle id="right_241" type="typeWE" route="right" depart="1123" />
    <vehicle id="left_242" type="typeWE" route="left" depart="1124" />
    <vehicle id="left_243" type="typeWE" route="left" depart="1135" />
    <vehicle id="left_244" type="typeWE" route="left" depart="1137" />
    <vehicle id="left_245" type="typeWE" route="left" depart="1140" />
    <vehicle id="right_246" type="typeWE" route="right" depart="1141" />
    <vehicle id="left_247" type="typeWE" route="left" depart="1143" />
    <vehicle id="right_248" type="typeWE" route="right" depart="1146" />
    <vehicle id="left_249" type="typeWE" route="left" depart="1150" />
    <vehicle id="down_250" type="typeNS" route="down" depart="1153" color="1,0,0"/>
    <vehicle id="left_251" type="typeWE" route="left" depart="1156" />
    <vehicle id="right_252" type="typeWE" route="right" depart="1167" />
    <vehicle id="left_253" type="typeWE" route="left" depart="1172" />
    <vehicle id="left_254" type="typeWE" route="left" depart="1181" />
    <vehicle id="right_255" type="typeWE" route="right" depart="1208" />
    <vehicle id="right_256" type="typeWE" route="right" depart="1212" />
    <vehicle id="left_257" type="typeWE" route="left" depart="1218" />
    <vehicle id="left_258" type="typeWE" route="left" depart="1232" />
    <vehicle id="left_259" type="typeWE" route="left" depart="1237" />
    <vehicle id="left_260" type="typeWE" route="left" depart="1246" />
    <vehicle id="right_261" type="typeWE" route="right" depart="1252" />
    <vehicle id="left_262" type="typeWE" route="left" depart="1252" />
    <vehicle id="left_263" type="typeWE" route="left" depart="1255" />
    <vehicle id="right_264" type="typeWE" route="right" depart="1258" />
    <vehicle id="right_265" type="typeWE" route="right" depart="1267" />
    <vehicle id="right_266" type="typeWE" route="right" depart="1275" />
    <vehicle id="left_267" type="typeWE" route="left" depart="1275" />
    <vehicle id="left_268" type="typeWE" route="left" depart="1281" />
    <vehicle id="left_269" type="typeWE" route="left" depart="1288" />
    <vehicle id="right_270" type="typeWE" route="right" depart="1289" />
    <vehicle id="down_271" type="typeNS" route="down" depart="1289" color="1,0,0"/>
    <vehicle id="left_272" type="typeWE" route="left" depart="1301" />
    <vehicle id="right_273" type="typeWE" route="right" depart="1302" />
    <vehicle id="right_274" type="typeWE" route="right" depart="1304" />
    <vehicle id="down_275" type="typeNS" route="down" depart="1317" color="1,0,0"/>
    <vehicle id="right_276" type="typeWE" route="right" depart="1318" />
    <vehicle id="left_277" type="typeWE" route="left" depart="1319" />
    <vehicle id="right_278" type="typeWE" route="right" depart="1320" />
    <vehicle id="right_279" type="typeWE" route="right" depart="1322" />
    <vehicle id="left_280" type="typeWE" route="left" depart="1323" />
    <vehicle id="left_281" type="typeWE" route="left" depart="1331" />
    <vehicle id="left_282" type="typeWE" route="left" depart="1332" />
    <vehicle id="right_283" type="typeWE" route="right" depart="1340" />
    <vehicle id="left_284" type="typeWE" route="left" depart="1344" />
    <vehicle id="right_285" type="typeWE" route="right" depart="1357" />
    <vehicle id="left_286" type="typeWE" route="left" depart="1357" />
    <vehicle id="left_287" type="typeWE" route="left" depart="1359" />
    <vehicle id="left_288" type="typeWE" route="left" depart="1366" />
    <vehicle id="right_289" type="typeWE" route="right" depart="1367" />
    <vehicle id="right_290" type="typeWE" route="right" depart="1370" />
    <vehicle id="left_291" type="typeWE" route="left" depart="1370" />
    <vehicle id="right_292" type="typeWE" route="right" depart="1375" />
    <vehicle id="down_293" type="typeNS" route="down" depart="1380" color="1,0,0"/>
    <vehicle id="left_294" type="typeWE" route="left" depart="1381" />
    <vehicle id="right_295" type="typeWE" route="right" depart="1384" />
    <vehicle id="right_296" type="typeWE" route="right" depart="1385" />
    <vehicle id="right_297" type="typeWE" route="right" depart="1386" />
    <vehicle id="left_298" type="typeWE" route="left" depart="1394" />
    <vehicle id="down_299" type="typeNS" route="down" depart="1402" color="1,0,0"/>
    <vehicle id="right_300" type="typeWE" route="right" depart="1420" />
    <vehicle id="right_301" type="typeWE" route="right" depart="1428" />
    <vehicle id="right_302" type="typeWE" route="right" depart="1433" />
    <vehicle id="down_303" type="typeNS" route="down" depart="1436" color="1,0,0"/>
    <vehicle id="left_304" type="typeWE" route="left" depart="1441" />
    <vehicle id="right_305" type="typeWE" route="right" depart="1450" />
    <vehicle id="down_306" type="typeNS" route="down" depart="1451" color="1,0,0"/>
    <vehicle id="right_307" type="typeWE" route="right" depart="1453" />
    <vehicle id="left_308" type="typeWE" route="left" depart="1454" />
    <vehicle id="down_309" type="typeNS" route="down" depart="1463" color="1,0,0"/>
    <vehicle id="right_310" type="typeWE" route="right" depart="1464" />
    <vehicle id="left_311" type="typeWE" route="left" depart="1470" />
    <vehicle id="right_312" type="typeWE" route="right" depart="1471" />
    <vehicle id="right_313" type="typeWE" route="right" depart="1475" />
    <vehicle id="left_314" type="typeWE" route="left" depart="1478" />
    <vehicle id="down_315" type="typeNS" route="down" depart="1483" color="1,0,0"/>
    <vehicle id="right_316" type="typeWE" route="right" depart="1484" />
    <vehicle id="left_317" type="typeWE" route="left" depart="1486" />
    <vehicle id="right_318" type="typeWE" route="right" depart="1488" />
    <vehicle id="left_319" type="typeWE" route="left" depart="1497" />
    <vehicle id="right_320" type="typeWE" route="right" depart="1499" />
    <vehicle id="left_321" type="typeWE" route="left" depart="1500" />
    <vehicle id="left_322" type="typeWE" route="left" depart="1512" />
    <vehicle id="right_323" type="typeWE" route="right" depart="1513" />
    <vehicle id="right_324" type="typeWE" route="right" depart="1516" />
    <vehicle id="left_325" type="typeWE" route="left" depart="1517" />
    <vehicle id="down_326" type="typeNS" route="down" depart="1533" color="1,0,0"/>
    <vehicle id="left_327" type="typeWE" route="left" depart="1536" />
    <vehicle id="right_328" type="typeWE" route="right" depart="1544" />
    <vehicle id="left_329" type="typeWE" route="left" depart="1547" />
    <vehicle id="left_330" type="typeWE" route="left" depart="1550" />
    <vehicle id="left_331" type="typeWE" route="left" depart="1554" />
    <vehicle id="right_332" type="typeWE" route="right" depart="1555" />
    <vehicle id="right_333" type="typeWE" route="right" depart="1559" />
    <vehicle id="left_334" type="typeWE" route="left" depart="1560" />
    <vehicle id="left_335" type="typeWE" route="left" depart="1562" />
    <vehicle id="right_336" type="typeWE" route="right" depart="1567" />
    <vehicle id="down_337" type="typeNS" route="down" depart="1568" color="1,0,0"/>
    <vehicle id="right_338" type="typeWE" route="right" depart="1570" />
    <vehicle id="left_339" type="typeWE" route="left" depart="1573" />
    <vehicle id="left_340" type="typeWE" route="left" depart="1574" />
    <vehicle id="right_341" type="typeWE" route="right" depart="1576" />
    <vehicle id="down_342" type="typeNS" route="down" depart="1576" color="1,0,0"/>
    <vehicle id="down_343" type="typeNS" route="down" depart="1578" color="1,0,0"/>
    <vehicle id="left_344" type="typeWE" route="left" depart="1583" />
    <vehicle id="right_345" type="typeWE" route="right" depart="1589" />
    <vehicle id="right_346" type="typeWE" route="right" depart="1591" />
    <vehicle id="right_347" type="typeWE" route="right" depart="1612" />
    <vehicle id="down_348" type="typeNS" route="down" depart="1612" color="1,0,0"/>
    <vehicle id="right_349" type="typeWE" route="right" depart="1622" />
    <vehicle id="left_350" type="typeWE" route="left" depart="1627" />
    <vehicle id="down_351" type="typeNS" route="down" depart="1645" color="1,0,0"/>
    <vehicle id="right_352" type="typeWE" route="right" depart="1650" />
    <vehicle id="right_353" type="typeWE" route="right" depart="1651" />
    <vehicle id="right_354" type="typeWE" route="right" depart="1653" />
    <vehicle id="right_355" type="typeWE" route="right" depart="1657" />
    <vehicle id="left_356" type="typeWE" route="left" depart="1658" />
    <vehicle id="down_357" type="typeNS" route="down" depart="1669" color="1,0,0"/>
    <vehicle id="right_358" type="typeWE" route="right" depart="1670" />
    <vehicle id="left_359" type="typeWE" route="left" depart="1673" />
    <vehicle id="down_360" type="typeNS" route="down" depart="1675" color="1,0,0"/>
    <vehicle id="left_361" type="typeWE" route="left" depart="1677" />
    <vehicle id="down_362" type="typeNS" route="down" depart="1686" color="1,0,0"/>
    <vehicle id="left_363" type="typeWE" route="left" depart="1690" />
    <vehicle id="down_364" type="typeNS" route="down" depart="1694" color="1,0,0"/>
    <vehicle id="down_365" type="typeNS" route="down" depart="1700" color="1,0,0"/>
    <vehicle id="right_366" type="typeWE" route="right" depart="1702" />
    <vehicle id="down_367" type="typeNS" route="down" depart="1707" color="1,0,0"/>
    <vehicle id="right_368" type="typeWE" route="right" depart="1711" />
    <vehicle id="left_369" type="typeWE" route="left" depart="1725" />
    <vehicle id="left_370" type="typeWE" route="left" depart="1735" />
    <vehicle id="right_371" type="typeWE" route="right" depart="1741" />
    <vehicle id="down_372" type="typeNS" route="down" depart="1742" color="1,0,0"/>
    <vehicle id="right_373" type="typeWE" route="right" depart="1748" />
    <vehicle id="left_374" type="typeWE" route="left" depart="1748" />
    <vehicle id="left_375" type="typeWE" route="left" depart="1758" />
    <vehicle id="down_376" type="typeNS" route="down" depart="1758" color="1,0,0"/>
    <vehicle id="left_377" type="typeWE" route="left" depart="1760" />
    <vehicle id="left_378" type="typeWE" route="left" depart="1771" />
    <vehicle id="right_379" type="typeWE" route="right" depart="1772" />
    <vehicle id="left_380" type="typeWE" route="left" depart="1773" />
    <vehicle id="left_381" type="typeWE" route="left" depart="1778" />
    <vehicle id="right_382" type="typeWE" route="right" depart="1780" />
    <vehicle id="right_383" type="typeWE" route="right" depart="1781" />
    <vehicle id="right_384" type="typeWE" route="right" depart="1785" />
    <vehicle id="left_385" type="typeWE" route="left" depart="1789" />
    <vehicle id="left_386" type="typeWE" route="left" depart="1798" />
    <vehicle id="left_387" type="typeWE" route="left" depart="1800" />
    <vehicle id="left_388" type="typeWE" route="left" depart="1803" />
    <vehicle id="right_389" type="typeWE" route="right" depart="1808" />
    <vehicle id="left_390" type="typeWE" route="left" depart="1808" />
    <vehicle id="left_391" type="typeWE" route="left" depart="1810" />
    <vehicle id="right_392" type="typeWE" route="right" depart="1821" />
    <vehicle id="left_393" type="typeWE" route="left" depart="1826" />
    <vehicle id="left_394" type="typeWE" route="left" depart="1833" />
    <vehicle id="right_395" type="typeWE" route="right" depart="1837" />
    <vehicle id="right_396" type="typeWE" route="right" depart="1838" />
    <vehicle id="right_397" type="typeWE" route="right" depart="1842" />
    <vehicle id="right_398" type="typeWE" route="right" depart="1847" />
    <vehicle id="left_399" type="typeWE" route="left" depart="1847" />
    <vehicle id="right_400" type="typeWE" route="right" depart="1848" />
    <vehicle id="left_401" type="typeWE" route="left" depart="1851" />
    <vehicle id="right_402" type="typeWE" route="right" depart="1853" />
    <vehicle id="left_403" type="typeWE" route="left" depart="1854" />
    <vehicle id="right_404" type="typeWE" route="right" depart="1865" />
    <vehicle id="left_405" type="typeWE" route="left" depart="1865" />