<additional>
    <tlLogic id="1" programID="stuff" offset="0" type="static">
         <phase duration="14" state="rrrGGgrrrGGg" />
         <phase duration="5" state="rrryygrrryyg" />
         <phase duration="9" state="rrrrrGrrrrrG" />
         <phase duration="5" state="rrrrryrrrrry" />
         <phase duration="9" state="GGgrrrGGgrrr" />
         <phase duration="5" state="yygrrryygrrr" />
         <phase duration="12" state="rrGrrrrrGrrr" />
         <phase duration="5" state="rryrrrrryrrr" />
    </tlLogic>
    <tlLogic id="2" programID="stuff" offset="0" type="static">
         <phase duration="11" state="rrrGGgrrrGGg" />
         <phase duration="5" state="rrryygrrryyg" />
         <phase duration="9" state="rrrrrGrrrrrG" />
         <phase duration="5" state="rrrrryrrrrry" />
         <phase duration="5" state="GGgrrrGGgrrr" />
         <phase duration="5" state="yygrrryygrrr" />
         <phase duration="5" state="rrGrrrrrGrrr" />
         <phase duration="5" state="rryrrrrryrrr" />
    </tlLogic>
    <tlLogic id="3" programID="stuff" offset="0" type="static">
         <phase duration="9" state="rrrGGgrrrGGg" />
         <phase duration="5" state="rrryygrrryyg" />
         <phase duration="12" state="rrrrrGrrrrrG" />
         <phase duration="5" state="rrrrryrrrrry" />
         <phase duration="14" state="GGgrrrGGgrrr" />
         <phase duration="5" state="yygrrryygrrr" />
         <phase duration="6" state="rrGrrrrrGrrr" />
         <phase duration="5" state="rryrrrrryrrr" />
    </tlLogic>
    <tlLogic id="4" programID="stuff" offset="0" type="static">
         <phase duration="10" state="rrrGGgrrrGGg" />
         <phase duration="5" state="rrryygrrryyg" />
         <phase duration="13" state="rrrrrGrrrrrG" />
         <phase duration="5" state="rrrrryrrrrry" />
         <phase duration="12" state="GGgrrrGGgrrr" />
         <phase duration="5" state="yygrrryygrrr" />
         <phase duration="13" state="rrGrrrrrGrrr" />
         <phase duration="5" state="rryrrrrryrrr" />
    </tlLogic>
    <tlLogic id="5" programID="stuff" offset="0" type="static">
         <phase duration="14" state="rrrGGgrrrGGg" />
         <phase duration="5" state="rrryygrrryyg" />
         <phase duration="6" state="rrrrrGrrrrrG" />
         <phase duration="5" state="rrrrryrrrrry" />
         <phase duration="11" state="GGgrrrGGgrrr" />
         <phase duration="5" state="yygrrryygrrr" />
         <phase duration="5" state="rrGrrrrrGrrr" />
         <phase duration="5" state="rryrrrrryrrr" />
    </tlLogic>
    <tlLogic id="6" programID="stuff" offset="0" type="static">
         <phase duration="14" state="rrrGGgrrrGGg" />
         <phase duration="5" state="rrryygrrryyg" />
         <phase duration="13" state="rrrrrGrrrrrG" />
         <phase duration="5" state="rrrrryrrrrry" />
         <phase duration="14" state="GGgrrrGGgrrr" />
         <phase duration="5" state="yygrrryygrrr" />
         <phase duration="12" state="rrGrrrrrGrrr" />
         <phase duration="5" state="rryrrrrryrrr" />
    </tlLogic>
    <tlLogic id="7" programID="stuff" offset="0" type="static">
         <phase duration="11" state="rrrGGgrrrGGg" />
         <phase duration="5" state="rrryygrrryyg" />
         <phase duration="11" state="rrrrrGrrrrrG" />
         <phase duration="5" state="rrrrryrrrrry" />
         <phase duration="6" state="GGgrrrGGgrrr" />
         <phase duration="5" state="yygrrryygrrr" />
         <phase duration="15" state="rrGrrrrrGrrr" />
         <phase duration="5" state="rryrrrrryrrr" />
    </tlLogic>
    <tlLogic id="8" programID="stuff" offset="0" type="static">
         <phase duration="13" state="rrrGGgrrrGGg" />
         <phase duration="5" state="rrryygrrryyg" />
         <phase duration="6" state="rrrrrGrrrrrG" />
         <phase duration="5" state="rrrrryrrrrry" />
         <phase duration="8" state="GGgrrrGGgrrr" />
         <phase duration="5" state="yygrrryygrrr" />
         <phase duration="5" state="rrGrrrrrGrrr" />
         <phase duration="5" state="rryrrrrryrrr" />
    </tlLogic>
    <tlLogic id="9" programID="stuff" offset="0" type="static">
         <phase duration="8" state="rrrGGgrrrGGg" />
         <phase duration="5" state="rrryygrrryyg" />
         <phase duration="5" state="rrrrrGrrrrrG" />
         <phase duration="5" state="rrrrryrrrrry" />
         <phase duration="10" state="GGgrrrGGgrrr" />
         <phase duration="5" state="yygrrryygrrr" />
         <phase duration="10" state="rrGrrrrrGrrr" />
         <phase duration="5" state="rryrrrrryrrr" />
    </tlLogic>
    <tlLogic id="10" programID="stuff" offset="0" type="static">
         <phase duration="5" state="rrrGGgrrrGGg" />
         <phase duration="5" state="rrryygrrryyg" />
         <phase duration="5" state="rrrrrGrrrrrG" />
         <phase duration="5" state="rrrrryrrrrry" />
         <phase duration="13" state="GGgrrrGGgrrr" />
         <phase duration="5" state="yygrrryygrrr" />
         <phase duration="9" state="rrGrrrrrGrrr" />
         <phase duration="5" state="rryrrrrryrrr" />
    </tlLogic>
    <tlLogic id="11" programID="stuff" offset="0" type="static">
         <phase duration="16" state="rrrGGgrrrGGg" />
         <phase duration="5" state="rrryygrrryyg" />
         <phase duration="7" state="rrrrrGrrrrrG" />
         <phase duration="5" state="rrrrryrrrrry" />
         <phase duration="11" state="GGgrrrGGgrrr" />
         <phase duration="5" state="yygrrryygrrr" />
         <phase duration="5" state="rrGrrrrrGrrr" />
         <phase duration="5" state="rryrrrrryrrr" />
    </tlLogic>
    <tlLogic id="12" programID="stuff" offset="0" type="static">
         <phase duration="11" state="rrrGGgrrrGGg" />
         <phase duration="5" state="rrryygrrryyg" />
         <phase duration="11" state="rrrrrGrrrrrG" />
         <phase duration="5" state="rrrrryrrrrry" />
         <phase duration="13" state="GGgrrrGGgrrr" />
         <phase duration="5" state="yygrrryygrrr" />
         <phase duration="13" state="rrGrrrrrGrrr" />
         <phase duration="5" state="rryrrrrryrrr" />
    </tlLogic>
    <tlLogic id="13" programID="stuff" offset="0" type="static">
         <phase duration="10" state="rrrGGgrrrGGg" />
         <phase duration="5" state="rrryygrrryyg" />
         <phase duration="12" state="rrrrrGrrrrrG" />
         <phase duration="5" state="rrrrryrrrrry" />
         <phase duration="6" state="GGgrrrGGgrrr" />
         <phase duration="5" state="yygrrryygrrr" />
         <phase duration="5" state="rrGrrrrrGrrr" />
         <phase duration="5" state="rryrrrrryrrr" />
    </tlLogic>
    <tlLogic id="14" programID="stuff" offset="0" type="static">
         <phase duration="12" state="rrrGGgrrrGGg" />
         <phase duration="5" state="rrryygrrryyg" />
         <phase duration="16" state="rrrrrGrrrrrG" />
         <phase duration="5" state="rrrrryrrrrry" />
         <phase duration="8" state="GGgrrrGGgrrr" />
         <phase duration="5" state="yygrrryygrrr" />
         <phase duration="12" state="rrGrrrrrGrrr" />
         <phase duration="5" state="rryrrrrryrrr" />
    </tlLogic>
    <tlLogic id="15" programID="stuff" offset="0" type="static">
         <phase duration="7" state="rrrGGgrrrGGg" />
         <phase duration="5" state="rrryygrrryyg" />
         <phase duration="10" state="rrrrrGrrrrrG" />
         <phase duration="5" state="rrrrryrrrrry" />
         <phase duration="16" state="GGgrrrGGgrrr" />
         <phase duration="5" state="yygrrryygrrr" />
         <phase duration="5" state="rrGrrrrrGrrr" />
         <phase duration="5" state="rryrrrrryrrr" />
    </tlLogic>
    <tlLogic id="16" programID="stuff" offset="0" type="static">
         <phase duration="10" state="rrrGGgrrrGGg" />
         <phase duration="5" state="rrryygrrryyg" />
         <phase duration="5" state="rrrrrGrrrrrG" />
         <phase duration="5" state="rrrrryrrrrry" />
         <phase duration="6" state="GGgrrrGGgrrr" />
         <phase duration="5" state="yygrrryygrrr" />
         <phase duration="12" state="rrGrrrrrGrrr" />
         <phase duration="5" state="rryrrrrryrrr" />
    </tlLogic>
    <tlLogic id="17" programID="stuff" offset="0" type="static">
         <phase duration="5" state="rrrGGgrrrGGg" />
         <phase duration="5" state="rrryygrrryyg" />
         <phase duration="10" state="rrrrrGrrrrrG" />
         <phase duration="5" state="rrrrryrrrrry" />
         <phase duration="5" state="GGgrrrGGgrrr" />
         <phase duration="5" state="yygrrryygrrr" />
         <phase duration="9" state="rrGrrrrrGrrr" />
         <phase duration="5" state="rryrrrrryrrr" />
    </tlLogic>
    <tlLogic id="18" programID="stuff" offset="0" type="static">
         <phase duration="14" state="rrrGGgrrrGGg" />
         <phase duration="5" state="rrryygrrryyg" />
         <phase duration="5" state="rrrrrGrrrrrG" />
         <phase duration="5" state="rrrrryrrrrry" />
         <phase duration="12" state="GGgrrrGGgrrr" />
         <phase duration="5" state="yygrrryygrrr" />
         <phase duration="11" state="rrGrrrrrGrrr" />
         <phase duration="5" state="rryrrrrryrrr" />
    </tlLogic>
    <tlLogic id="19" programID="stuff" offset="0" type="static">
         <phase duration="5" state="rrrGGgrrrGGg" />
         <phase duration="5" state="rrryygrrryyg" />
         <phase duration="5" state="rrrrrGrrrrrG" />
         <phase duration="5" state="rrrrryrrrrry" />
         <phase duration="10" state="GGgrrrGGgrrr" />
         <phase duration="5" state="yygrrryygrrr" />
         <phase duration="5" state="rrGrrrrrGrrr" />
         <phase duration="5" state="rryrrrrryrrr" />
    </tlLogic>
    <tlLogic id="20" programID="stuff" offset="0" type="static">
         <phase duration="5" state="rrrGGgrrrGGg" />
         <phase duration="5" state="rrryygrrryyg" />
         <phase duration="5" state="rrrrrGrrrrrG" />
         <phase duration="5" state="rrrrryrrrrry" />
         <phase duration="5" state="GGgrrrGGgrrr" />
         <phase duration="5" state="yygrrryygrrr" />
         <phase duration="5" state="rrGrrrrrGrrr" />
         <phase duration="5" state="rryrrrrryrrr" />
    </tlLogic>
    <tlLogic id="21" programID="stuff" offset="0" type="static">
         <phase duration="12" state="rrrGGgrrrGGg" />
         <phase duration="5" state="rrryygrrryyg" />
         <phase duration="14" state="rrrrrGrrrrrG" />
         <phase duration="5" state="rrrrryrrrrry" />
         <phase duration="12" state="GGgrrrGGgrrr" />
         <phase duration="5" state="yygrrryygrrr" />
         <phase duration="13" state="rrGrrrrrGrrr" />
         <phase duration="5" state="rryrrrrryrrr" />
    </tlLogic>
    <tlLogic id="22" programID="stuff" offset="0" type="static">
         <phase duration="6" state="rrrGGgrrrGGg" />
         <phase duration="5" state="rrryygrrryyg" />
         <phase duration="12" state="rrrrrGrrrrrG" />
         <phase duration="5" state="rrrrryrrrrry" />
         <phase duration="5" state="GGgrrrGGgrrr" />
         <phase duration="5" state="yygrrryygrrr" />
         <phase duration="10" state="rrGrrrrrGrrr" />
         <phase duration="5" state="rryrrrrryrrr" />
    </tlLogic>
    <tlLogic id="23" programID="stuff" offset="0" type="static">
         <phase duration="5" state="rrrGGgrrrGGg" />
         <phase duration="5" state="rrryygrrryyg" />
         <phase duration="5" state="rrrrrGrrrrrG" />
         <phase duration="5" state="rrrrryrrrrry" />
         <phase duration="5" state="GGgrrrGGgrrr" />
         <phase duration="5" state="yygrrryygrrr" />
         <phase duration="14" state="rrGrrrrrGrrr" />
         <phase duration="5" state="rryrrrrryrrr" />
    </tlLogic>
    <tlLogic id="24" programID="stuff" offset="0" type="static">
         <phase duration="11" state="rrrGGgrrrGGg" />
         <phase duration="5" state="rrryygrrryyg" />
         <phase duration="11" state="rrrrrGrrrrrG" />
         <phase duration="5" state="rrrrryrrrrry" />
         <phase duration="8" state="GGgrrrGGgrrr" />
         <phase duration="5" state="yygrrryygrrr" />
         <phase duration="5" state="rrGrrrrrGrrr" />
         <phase duration="5" state="rryrrrrryrrr" />
    </tlLogic>
    <tlLogic id="25" programID="stuff" offset="0" type="static">
         <phase duration="12" state="rrrGGgrrrGGg" />
         <phase duration="5" state="rrryygrrryyg" />
         <phase duration="13" state="rrrrrGrrrrrG" />
         <phase duration="5" state="rrrrryrrrrry" />
         <phase duration="15" state="GGgrrrGGgrrr" />
         <phase duration="5" state="yygrrryygrrr" />
         <phase duration="11" state="rrGrrrrrGrrr" />
         <phase duration="5" state="rryrrrrryrrr" />
    </tlLogic>
</additional>
