<?xml version="1.0" encoding="UTF-8"?>

<!-- generated on 04/22/16 16:55:45 by SUMO netconvert Version 0.25.0
<?xml version="1.0" encoding="UTF-8"?>

<configuration xmlns:xsi="http://www.w3.org/2001/XMLSchema-instance" xsi:noNamespaceSchemaLocation="http://sumo.dlr.de/xsd/netconvertConfiguration.xsd">

    <input>
        <node-files value="cross.nod.xml"/>
        <edge-files value="cross.edg.xml"/>
        <connection-files value="cross.con.xml"/>
    </input>

    <output>
        <output-file value="cross.net.xml"/>
    </output>

</configuration>
-->

<net version="0.25" xmlns:xsi="http://www.w3.org/2001/XMLSchema-instance" xsi:noNamespaceSchemaLocation="http://sumo.dlr.de/xsd/net_file.xsd">

    <location netOffset="0.00,0.00" convBoundary="0.00,0.00,3000.00,3000.00" origBoundary="0.00,0.00,3000.00,3000.00" projParameter="!"/>

    <edge id=":1_0" function="internal">
        <lane id=":1_0_0" index="0" speed="15.50" length="5.00" shape="498.35,504.75 498.16,503.39 497.58,502.42 496.61,501.84 495.25,501.65"/>
    </edge>
    <edge id=":1_1" function="internal">
        <lane id=":1_1_0" index="0" speed="19.00" length="9.50" shape="498.35,504.75 498.35,495.25"/>
    </edge>
    <edge id=":1_2" function="internal">
        <lane id=":1_2_0" index="0" speed="17.00" length="5.28" shape="498.35,504.75 498.75,501.95 499.95,499.95 500.05,499.89"/>
    </edge>
    <edge id=":1_12" function="internal">
        <lane id=":1_12_0" index="0" speed="17.00" length="5.04" shape="500.05,499.89 501.95,498.75 504.75,498.35"/>
    </edge>
    <edge id=":1_3" function="internal">
        <lane id=":1_3_0" index="0" speed="25.00" length="5.00" shape="504.75,501.65 503.39,501.84 502.42,502.42 501.84,503.39 501.65,504.75"/>
    </edge>
    <edge id=":1_4" function="internal">
        <lane id=":1_4_0" index="0" speed="20.50" length="9.50" shape="504.75,501.65 495.25,501.65"/>
    </edge>
    <edge id=":1_5" function="internal">
        <lane id=":1_5_0" index="0" speed="24.00" length="5.28" shape="504.75,501.65 501.95,501.25 499.95,500.05 499.89,499.95"/>
    </edge>
    <edge id=":1_13" function="internal">
        <lane id=":1_13_0" index="0" speed="24.00" length="5.04" shape="499.89,499.95 498.75,498.05 498.35,495.25"/>
    </edge>
    <edge id=":1_6" function="internal">
        <lane id=":1_6_0" index="0" speed="19.50" length="5.00" shape="501.65,495.25 501.84,496.61 502.42,497.58 503.39,498.16 504.75,498.35"/>
    </edge>
    <edge id=":1_7" function="internal">
        <lane id=":1_7_0" index="0" speed="22.50" length="9.50" shape="501.65,495.25 501.65,504.75"/>
    </edge>
    <edge id=":1_8" function="internal">
        <lane id=":1_8_0" index="0" speed="18.00" length="5.28" shape="501.65,495.25 501.25,498.05 500.05,500.05 499.95,500.11"/>
    </edge>
    <edge id=":1_14" function="internal">
        <lane id=":1_14_0" index="0" speed="18.00" length="5.04" shape="499.95,500.11 498.05,501.25 495.25,501.65"/>
    </edge>
    <edge id=":1_9" function="internal">
        <lane id=":1_9_0" index="0" speed="18.00" length="5.00" shape="495.25,498.35 496.61,498.16 497.58,497.58 498.16,496.61 498.35,495.25"/>
    </edge>
    <edge id=":1_10" function="internal">
        <lane id=":1_10_0" index="0" speed="16.00" length="9.50" shape="495.25,498.35 504.75,498.35"/>
    </edge>
    <edge id=":1_11" function="internal">
        <lane id=":1_11_0" index="0" speed="19.00" length="5.28" shape="495.25,498.35 498.05,498.75 500.05,499.95 500.11,500.05"/>
    </edge>
    <edge id=":1_15" function="internal">
        <lane id=":1_15_0" index="0" speed="19.00" length="5.04" shape="500.11,500.05 501.25,501.95 501.65,504.75"/>
    </edge>
    <edge id=":10_0" function="internal">
        <lane id=":10_0_0" index="0" speed="16.50" length="16.00" shape="1011.25,2501.65 1007.34,2501.65 1003.25,2501.65 999.16,2501.65 995.25,2501.65"/>
    </edge>
    <edge id=":10_1" function="internal">
        <lane id=":10_1_0" index="0" speed="13.00" length="8.35" shape="1011.25,2501.65 1005.61,2501.05 1003.16,2499.95"/>
    </edge>
    <edge id=":10_2" function="internal">
        <lane id=":10_2_0" index="0" speed="19.00" length="8.23" shape="1011.25,2501.65 1004.97,2501.04 1003.39,2499.95"/>
    </edge>
    <edge id=":10_12" function="internal">
        <lane id=":10_12_0" index="0" speed="13.00" length="9.90" shape="1003.16,2499.95 1001.58,2499.24 999.16,2496.22 998.35,2492.00"/>
    </edge>
    <edge id=":10_13" function="internal">
        <lane id=":10_13_0" index="0" speed="19.00" length="10.79" shape="1003.39,2499.95 1002.34,2499.22 1003.35,2496.18 1008.01,2491.93"/>
    </edge>
    <edge id=":10_3" function="internal">
        <lane id=":10_3_0" index="0" speed="10.50" length="7.40" shape="1009.99,2494.57 1008.18,2496.22 1007.79,2497.40 1008.81,2498.11 1011.25,2498.35"/>
    </edge>
    <edge id=":10_4" function="internal">
        <lane id=":10_4_0" index="0" speed="14.00" length="16.59" shape="1009.99,2494.57 1006.70,2496.94 1003.00,2499.24 999.10,2500.97 995.25,2501.65"/>
    </edge>
    <edge id=":10_5" function="internal">
        <lane id=":10_5_0" index="0" speed="10.50" length="17.00" shape="1009.99,2494.57 1004.90,2497.68 1001.26,2498.29 999.08,2496.40 998.35,2492.00"/>
    </edge>
    <edge id=":10_6" function="internal">
        <lane id=":10_6_0" index="0" speed="18.00" length="8.52" shape="1001.65,2492.00 1002.05,2493.76 1003.24,2494.33 1005.23,2493.72 1008.01,2491.93"/>
    </edge>
    <edge id=":10_7" function="internal">
        <lane id=":10_7_0" index="0" speed="12.00" length="12.97" shape="1001.65,2492.00 1002.25,2494.78 1004.05,2496.76 1007.05,2497.95 1011.25,2498.35"/>
    </edge>
    <edge id=":10_8" function="internal">
        <lane id=":10_8_0" index="0" speed="15.50" length="6.90" shape="1001.65,2492.00 1001.25,2496.22 1000.27,2498.70"/>
    </edge>
    <edge id=":10_14" function="internal">
        <lane id=":10_14_0" index="0" speed="15.50" length="6.14" shape="1000.27,2498.70 1000.05,2499.24 998.05,2501.05 995.25,2501.65"/>
    </edge>
    <edge id=":10_9" function="internal">
        <lane id=":10_9_0" index="0" speed="15.00" length="7.80" shape="995.25,2498.35 996.61,2497.95 997.57,2496.76 998.16,2494.78 998.35,2492.00"/>
    </edge>
    <edge id=":10_10" function="internal">
        <lane id=":10_10_0" index="0" speed="21.00" length="14.55" shape="995.25,2498.35 998.79,2497.77 1002.01,2496.26 1005.03,2494.20 1008.01,2491.93"/>
    </edge>
    <edge id=":10_11" function="internal">
        <lane id=":10_11_0" index="0" speed="15.00" length="16.00" shape="995.25,2498.35 999.16,2498.35 1003.25,2498.35 1007.34,2498.35 1011.25,2498.35"/>
    </edge>
    <edge id=":11_0" function="internal">
        <lane id=":11_0_0" index="0" speed="13.50" length="9.56" shape="1498.35,507.57 1497.87,505.93 1496.45,505.47 1494.07,506.22 1490.74,508.16"/>
    </edge>
    <edge id=":11_1" function="internal">
        <lane id=":11_1_0" index="0" speed="18.50" length="13.52" shape="1498.35,507.57 1497.69,504.98 1495.70,503.13 1492.40,502.02 1487.77,501.65"/>
    </edge>
    <edge id=":11_2" function="internal">
        <lane id=":11_2_0" index="0" speed="10.50" length="6.55" shape="1498.35,507.57 1498.75,503.54 1499.71,501.24"/>
    </edge>
    <edge id=":11_12" function="internal">
        <lane id=":11_12_0" index="0" speed="10.50" length="6.13" shape="1499.71,501.24 1499.95,500.66 1501.95,498.93 1504.75,498.35"/>
    </edge>
    <edge id=":11_3" function="internal">
        <lane id=":11_3_0" index="0" speed="21.00" length="7.42" shape="1504.75,501.65 1503.39,502.02 1502.43,503.13 1501.84,504.98 1501.65,507.57"/>
    </edge>
    <edge id=":11_4" function="internal">
        <lane id=":11_4_0" index="0" speed="20.50" length="15.66" shape="1504.75,501.65 1501.04,502.28 1497.43,503.86 1493.98,505.97 1490.74,508.16"/>
    </edge>
    <edge id=":11_5" function="internal">
        <lane id=":11_5_0" index="0" speed="25.50" length="16.98" shape="1504.75,501.65 1500.69,501.65 1496.26,501.65 1491.83,501.65 1487.77,501.65"/>
    </edge>
    <edge id=":11_6" function="internal">
        <lane id=":11_6_0" index="0" speed="7.00" length="16.98" shape="1487.77,498.35 1491.83,498.35 1496.26,498.35 1500.69,498.35 1504.75,498.35"/>
    </edge>
    <edge id=":11_7" function="internal">
        <lane id=":11_7_0" index="0" speed="10.50" length="9.14" shape="1487.77,498.35 1493.84,498.93 1496.66,500.05"/>
    </edge>
    <edge id=":11_8" function="internal">
        <lane id=":11_8_0" index="0" speed="10.00" length="8.81" shape="1487.77,498.35 1494.58,498.96 1496.22,500.05"/>
    </edge>
    <edge id=":11_13" function="internal">
        <lane id=":11_13_0" index="0" speed="10.50" length="9.65" shape="1496.66,500.05 1498.18,500.66 1500.78,503.54 1501.65,507.57"/>
    </edge>
    <edge id=":11_14" function="internal">
        <lane id=":11_14_0" index="0" speed="10.00" length="11.53" shape="1496.22,500.05 1497.35,500.80 1496.07,503.87 1490.74,508.16"/>
    </edge>
    <edge id=":11_9" function="internal">
        <lane id=":11_9_0" index="0" speed="18.50" length="7.80" shape="1488.91,505.41 1490.95,503.77 1491.44,502.59 1490.38,501.89 1487.77,501.65"/>
    </edge>
    <edge id=":11_10" function="internal">
        <lane id=":11_10_0" index="0" speed="10.50" length="17.54" shape="1488.91,505.41 1492.43,503.14 1496.51,500.84 1500.75,499.06 1504.75,498.35"/>
    </edge>
    <edge id=":11_11" function="internal">
        <lane id=":11_11_0" index="0" speed="14.00" length="17.55" shape="1488.91,505.41 1494.48,502.36 1498.46,501.70 1500.85,503.44 1501.65,507.57"/>
    </edge>
    <edge id=":12_0" function="internal">
        <lane id=":12_0_0" index="0" speed="22.00" length="5.00" shape="1498.35,1004.75 1498.16,1003.39 1497.57,1002.43 1496.61,1001.84 1495.25,1001.65"/>
    </edge>
    <edge id=":12_1" function="internal">
        <lane id=":12_1_0" index="0" speed="20.50" length="9.50" shape="1498.35,1004.75 1498.35,995.25"/>
    </edge>
    <edge id=":12_2" function="internal">
        <lane id=":12_2_0" index="0" speed="18.00" length="5.28" shape="1498.35,1004.75 1498.75,1001.95 1499.95,999.95 1500.05,999.89"/>
    </edge>
    <edge id=":12_12" function="internal">
        <lane id=":12_12_0" index="0" speed="18.00" length="5.04" shape="1500.05,999.89 1501.95,998.75 1504.75,998.35"/>
    </edge>
    <edge id=":12_3" function="internal">
        <lane id=":12_3_0" index="0" speed="19.00" length="5.00" shape="1504.75,1001.65 1503.39,1001.84 1502.43,1002.43 1501.84,1003.39 1501.65,1004.75"/>
    </edge>
    <edge id=":12_4" function="internal">
        <lane id=":12_4_0" index="0" speed="18.00" length="9.50" shape="1504.75,1001.65 1495.25,1001.65"/>
    </edge>
    <edge id=":12_5" function="internal">
        <lane id=":12_5_0" index="0" speed="16.50" length="5.28" shape="1504.75,1001.65 1501.95,1001.25 1499.95,1000.05 1499.89,999.95"/>
    </edge>
    <edge id=":12_13" function="internal">
        <lane id=":12_13_0" index="0" speed="16.50" length="5.04" shape="1499.89,999.95 1498.75,998.05 1498.35,995.25"/>
    </edge>
    <edge id=":12_6" function="internal">
        <lane id=":12_6_0" index="0" speed="11.50" length="5.00" shape="1501.65,995.25 1501.84,996.61 1502.43,997.57 1503.39,998.16 1504.75,998.35"/>
    </edge>
    <edge id=":12_7" function="internal">
        <lane id=":12_7_0" index="0" speed="16.50" length="9.50" shape="1501.65,995.25 1501.65,1004.75"/>
    </edge>
    <edge id=":12_8" function="internal">
        <lane id=":12_8_0" index="0" speed="15.50" length="5.28" shape="1501.65,995.25 1501.25,998.05 1500.05,1000.05 1499.95,1000.11"/>
    </edge>
    <edge id=":12_14" function="internal">
        <lane id=":12_14_0" index="0" speed="15.50" length="5.04" shape="1499.95,1000.11 1498.05,1001.25 1495.25,1001.65"/>
    </edge>
    <edge id=":12_9" function="internal">
        <lane id=":12_9_0" index="0" speed="11.50" length="5.00" shape="1495.25,998.35 1496.61,998.16 1497.57,997.58 1498.16,996.61 1498.35,995.25"/>
    </edge>
    <edge id=":12_10" function="internal">
        <lane id=":12_10_0" index="0" speed="9.00" length="9.50" shape="1495.25,998.35 1504.75,998.35"/>
    </edge>
    <edge id=":12_11" function="internal">
        <lane id=":12_11_0" index="0" speed="14.00" length="5.28" shape="1495.25,998.35 1498.05,998.75 1500.05,999.95 1500.11,1000.05"/>
    </edge>
    <edge id=":12_15" function="internal">
        <lane id=":12_15_0" index="0" speed="14.00" length="5.04" shape="1500.11,1000.05 1501.25,1001.95 1501.65,1004.75"/>
    </edge>
    <edge id=":13_0" function="internal">
        <lane id=":13_0_0" index="0" speed="9.50" length="5.00" shape="1498.35,1504.75 1498.16,1503.39 1497.57,1502.43 1496.61,1501.84 1495.25,1501.65"/>
    </edge>
    <edge id=":13_1" function="internal">
        <lane id=":13_1_0" index="0" speed="19.00" length="9.50" shape="1498.35,1504.75 1498.35,1495.25"/>
    </edge>
    <edge id=":13_2" function="internal">
        <lane id=":13_2_0" index="0" speed="14.00" length="5.28" shape="1498.35,1504.75 1498.75,1501.95 1499.95,1499.95 1500.05,1499.89"/>
    </edge>
    <edge id=":13_12" function="internal">
        <lane id=":13_12_0" index="0" speed="14.00" length="5.04" shape="1500.05,1499.89 1501.95,1498.75 1504.75,1498.35"/>
    </edge>
    <edge id=":13_3" function="internal">
        <lane id=":13_3_0" index="0" speed="21.00" length="5.00" shape="1504.75,1501.65 1503.39,1501.84 1502.43,1502.43 1501.84,1503.39 1501.65,1504.75"/>
    </edge>
    <edge id=":13_4" function="internal">
        <lane id=":13_4_0" index="0" speed="12.50" length="9.50" shape="1504.75,1501.65 1495.25,1501.65"/>
    </edge>
    <edge id=":13_5" function="internal">
        <lane id=":13_5_0" index="0" speed="22.00" length="5.28" shape="1504.75,1501.65 1501.95,1501.25 1499.95,1500.05 1499.89,1499.95"/>
    </edge>
    <edge id=":13_13" function="internal">
        <lane id=":13_13_0" index="0" speed="22.00" length="5.04" shape="1499.89,1499.95 1498.75,1498.05 1498.35,1495.25"/>
    </edge>
    <edge id=":13_6" function="internal">
        <lane id=":13_6_0" index="0" speed="18.00" length="5.00" shape="1501.65,1495.25 1501.84,1496.61 1502.43,1497.57 1503.39,1498.16 1504.75,1498.35"/>
    </edge>
    <edge id=":13_7" function="internal">
        <lane id=":13_7_0" index="0" speed="22.00" length="9.50" shape="1501.65,1495.25 1501.65,1504.75"/>
    </edge>
    <edge id=":13_8" function="internal">
        <lane id=":13_8_0" index="0" speed="13.50" length="5.28" shape="1501.65,1495.25 1501.25,1498.05 1500.05,1500.05 1499.95,1500.11"/>
    </edge>
    <edge id=":13_14" function="internal">
        <lane id=":13_14_0" index="0" speed="13.50" length="5.04" shape="1499.95,1500.11 1498.05,1501.25 1495.25,1501.65"/>
    </edge>
    <edge id=":13_9" function="internal">
        <lane id=":13_9_0" index="0" speed="21.50" length="5.00" shape="1495.25,1498.35 1496.61,1498.16 1497.57,1497.57 1498.16,1496.61 1498.35,1495.25"/>
    </edge>
    <edge id=":13_10" function="internal">
        <lane id=":13_10_0" index="0" speed="16.50" length="9.50" shape="1495.25,1498.35 1504.75,1498.35"/>
    </edge>
    <edge id=":13_11" function="internal">
        <lane id=":13_11_0" index="0" speed="20.50" length="5.28" shape="1495.25,1498.35 1498.05,1498.75 1500.05,1499.95 1500.11,1500.05"/>
    </edge>
    <edge id=":13_15" function="internal">
        <lane id=":13_15_0" index="0" speed="20.50" length="5.04" shape="1500.11,1500.05 1501.25,1501.95 1501.65,1504.75"/>
    </edge>
    <edge id=":14_0" function="internal">
        <lane id=":14_0_0" index="0" speed="25.00" length="5.00" shape="1498.35,2004.75 1498.16,2003.39 1497.57,2002.43 1496.61,2001.84 1495.25,2001.65"/>
    </edge>
    <edge id=":14_1" function="internal">
        <lane id=":14_1_0" index="0" speed="17.50" length="9.50" shape="1498.35,2004.75 1498.35,1995.25"/>
    </edge>
    <edge id=":14_2" function="internal">
        <lane id=":14_2_0" index="0" speed="27.50" length="5.28" shape="1498.35,2004.75 1498.75,2001.95 1499.95,1999.95 1500.05,1999.89"/>
    </edge>
    <edge id=":14_12" function="internal">
        <lane id=":14_12_0" index="0" speed="27.50" length="5.04" shape="1500.05,1999.89 1501.95,1998.75 1504.75,1998.35"/>
    </edge>
    <edge id=":14_3" function="internal">
        <lane id=":14_3_0" index="0" speed="14.00" length="5.00" shape="1504.75,2001.65 1503.39,2001.84 1502.43,2002.43 1501.84,2003.39 1501.65,2004.75"/>
    </edge>
    <edge id=":14_4" function="internal">
        <lane id=":14_4_0" index="0" speed="18.00" length="9.50" shape="1504.75,2001.65 1495.25,2001.65"/>
    </edge>
    <edge id=":14_5" function="internal">
        <lane id=":14_5_0" index="0" speed="10.50" length="5.28" shape="1504.75,2001.65 1501.95,2001.25 1499.95,2000.05 1499.89,1999.95"/>
    </edge>
    <edge id=":14_13" function="internal">
        <lane id=":14_13_0" index="0" speed="10.50" length="5.04" shape="1499.89,1999.95 1498.75,1998.05 1498.35,1995.25"/>
    </edge>
    <edge id=":14_6" function="internal">
        <lane id=":14_6_0" index="0" speed="28.00" length="5.00" shape="1501.65,1995.25 1501.84,1996.61 1502.43,1997.57 1503.39,1998.16 1504.75,1998.35"/>
    </edge>
    <edge id=":14_7" function="internal">
        <lane id=":14_7_0" index="0" speed="21.50" length="9.50" shape="1501.65,1995.25 1501.65,2004.75"/>
    </edge>
    <edge id=":14_8" function="internal">
        <lane id=":14_8_0" index="0" speed="25.50" length="5.28" shape="1501.65,1995.25 1501.25,1998.05 1500.05,2000.05 1499.95,2000.11"/>
    </edge>
    <edge id=":14_14" function="internal">
        <lane id=":14_14_0" index="0" speed="25.50" length="5.04" shape="1499.95,2000.11 1498.05,2001.25 1495.25,2001.65"/>
    </edge>
    <edge id=":14_9" function="internal">
        <lane id=":14_9_0" index="0" speed="17.50" length="5.00" shape="1495.25,1998.35 1496.61,1998.16 1497.57,1997.57 1498.16,1996.61 1498.35,1995.25"/>
    </edge>
    <edge id=":14_10" function="internal">
        <lane id=":14_10_0" index="0" speed="27.50" length="9.50" shape="1495.25,1998.35 1504.75,1998.35"/>
    </edge>
    <edge id=":14_11" function="internal">
        <lane id=":14_11_0" index="0" speed="21.00" length="5.28" shape="1495.25,1998.35 1498.05,1998.75 1500.05,1999.95 1500.11,2000.05"/>
    </edge>
    <edge id=":14_15" function="internal">
        <lane id=":14_15_0" index="0" speed="21.00" length="5.04" shape="1500.11,2000.05 1501.25,2001.95 1501.65,2004.75"/>
    </edge>
    <edge id=":15_0" function="internal">
        <lane id=":15_0_0" index="0" speed="9.50" length="16.98" shape="1512.23,2501.65 1508.17,2501.65 1503.74,2501.65 1499.31,2501.65 1495.25,2501.65"/>
    </edge>
    <edge id=":15_1" function="internal">
        <lane id=":15_1_0" index="0" speed="16.50" length="18.78" shape="1512.23,2501.65 1506.16,2501.07 1501.82,2499.34 1499.22,2496.46 1498.35,2492.43"/>
    </edge>
    <edge id=":15_2" function="internal">
        <lane id=":15_2_0" index="0" speed="11.00" length="11.47" shape="1512.23,2501.65 1505.42,2501.04 1502.65,2499.20 1503.15,2497.99"/>
    </edge>
    <edge id=":15_12" function="internal">
        <lane id=":15_12_0" index="0" speed="11.00" length="8.86" shape="1503.15,2497.99 1503.93,2496.13 1509.26,2491.84"/>
    </edge>
    <edge id=":15_3" function="internal">
        <lane id=":15_3_0" index="0" speed="20.00" length="7.80" shape="1511.09,2494.59 1509.05,2496.23 1508.56,2497.41 1509.62,2498.11 1512.23,2498.35"/>
    </edge>
    <edge id=":15_4" function="internal">
        <lane id=":15_4_0" index="0" speed="18.50" length="17.54" shape="1511.09,2494.59 1507.57,2496.86 1503.49,2499.16 1499.25,2500.94 1495.25,2501.65"/>
    </edge>
    <edge id=":15_5" function="internal">
        <lane id=":15_5_0" index="0" speed="25.50" length="10.23" shape="1511.09,2494.59 1505.52,2497.64 1501.70,2498.27"/>
    </edge>
    <edge id=":15_13" function="internal">
        <lane id=":15_13_0" index="0" speed="25.50" length="7.32" shape="1501.70,2498.27 1501.54,2498.30 1499.15,2496.56 1498.35,2492.43"/>
    </edge>
    <edge id=":15_6" function="internal">
        <lane id=":15_6_0" index="0" speed="15.50" length="9.56" shape="1501.65,2492.43 1502.13,2494.07 1503.55,2494.53 1505.93,2493.78 1509.26,2491.84"/>
    </edge>
    <edge id=":15_7" function="internal">
        <lane id=":15_7_0" index="0" speed="15.50" length="13.52" shape="1501.65,2492.43 1502.31,2495.02 1504.30,2496.87 1507.60,2497.98 1512.23,2498.35"/>
    </edge>
    <edge id=":15_8" function="internal">
        <lane id=":15_8_0" index="0" speed="14.00" length="3.93" shape="1501.65,2492.43 1501.26,2496.34"/>
    </edge>
    <edge id=":15_14" function="internal">
        <lane id=":15_14_0" index="0" speed="14.00" length="8.75" shape="1501.26,2496.34 1501.25,2496.46 1500.05,2499.34 1498.05,2501.07 1495.25,2501.65"/>
    </edge>
    <edge id=":15_9" function="internal">
        <lane id=":15_9_0" index="0" speed="20.00" length="7.42" shape="1495.25,2498.35 1496.61,2497.98 1497.57,2496.87 1498.16,2495.02 1498.35,2492.43"/>
    </edge>
    <edge id=":15_10" function="internal">
        <lane id=":15_10_0" index="0" speed="14.50" length="15.66" shape="1495.25,2498.35 1498.96,2497.72 1502.57,2496.14 1506.02,2494.03 1509.26,2491.84"/>
    </edge>
    <edge id=":15_11" function="internal">
        <lane id=":15_11_0" index="0" speed="14.50" length="16.98" shape="1495.25,2498.35 1499.31,2498.35 1503.74,2498.35 1508.17,2498.35 1512.23,2498.35"/>
    </edge>
    <edge id=":16_0" function="internal">
        <lane id=":16_0_0" index="0" speed="21.00" length="8.52" shape="1998.35,508.00 1997.95,506.24 1996.76,505.67 1994.77,506.28 1991.99,508.07"/>
    </edge>
    <edge id=":16_1" function="internal">
        <lane id=":16_1_0" index="0" speed="23.00" length="12.97" shape="1998.35,508.00 1997.75,505.22 1995.95,503.24 1992.95,502.05 1988.75,501.65"/>
    </edge>
    <edge id=":16_2" function="internal">
        <lane id=":16_2_0" index="0" speed="19.50" length="13.05" shape="1998.35,508.00 1998.75,503.78 1999.95,500.76 2001.95,498.95 2004.75,498.35"/>
    </edge>
    <edge id=":16_3" function="internal">
        <lane id=":16_3_0" index="0" speed="16.00" length="7.80" shape="2004.75,501.65 2003.39,502.05 2002.43,503.24 2001.84,505.22 2001.65,508.00"/>
    </edge>
    <edge id=":16_4" function="internal">
        <lane id=":16_4_0" index="0" speed="13.50" length="14.55" shape="2004.75,501.65 2001.21,502.23 1998.00,503.73 1994.97,505.80 1991.99,508.07"/>
    </edge>
    <edge id=":16_5" function="internal">
        <lane id=":16_5_0" index="0" speed="15.50" length="16.00" shape="2004.75,501.65 2000.84,501.65 1996.75,501.65 1992.66,501.65 1988.75,501.65"/>
    </edge>
    <edge id=":16_6" function="internal">
        <lane id=":16_6_0" index="0" speed="14.00" length="16.00" shape="1988.75,498.35 1992.66,498.35 1996.75,498.35 2000.84,498.35 2004.75,498.35"/>
    </edge>
    <edge id=":16_7" function="internal">
        <lane id=":16_7_0" index="0" speed="18.00" length="18.26" shape="1988.75,498.35 1994.39,498.95 1998.43,500.76 2000.84,503.78 2001.65,508.00"/>
    </edge>
    <edge id=":16_8" function="internal">
        <lane id=":16_8_0" index="0" speed="15.50" length="19.02" shape="1988.75,498.35 1995.03,498.96 1997.66,500.78 1996.65,503.82 1991.99,508.07"/>
    </edge>
    <edge id=":16_9" function="internal">
        <lane id=":16_9_0" index="0" speed="19.50" length="7.40" shape="1990.01,505.43 1991.82,503.78 1992.22,502.59 1991.19,501.89 1988.75,501.65"/>
    </edge>
    <edge id=":16_10" function="internal">
        <lane id=":16_10_0" index="0" speed="16.00" length="16.59" shape="1990.01,505.43 1993.30,503.06 1997.01,500.76 2000.90,499.03 2004.75,498.35"/>
    </edge>
    <edge id=":16_11" function="internal">
        <lane id=":16_11_0" index="0" speed="20.00" length="8.09" shape="1990.01,505.43 1995.10,502.32 1997.20,501.97"/>
    </edge>
    <edge id=":16_12" function="internal">
        <lane id=":16_12_0" index="0" speed="20.00" length="8.91" shape="1997.20,501.97 1998.74,501.71 2000.92,503.60 2001.65,508.00"/>
    </edge>
    <edge id=":17_0" function="internal">
        <lane id=":17_0_0" index="0" speed="16.50" length="5.00" shape="1998.35,1004.75 1998.16,1003.39 1997.57,1002.43 1996.61,1001.84 1995.25,1001.65"/>
    </edge>
    <edge id=":17_1" function="internal">
        <lane id=":17_1_0" index="0" speed="16.00" length="9.50" shape="1998.35,1004.75 1998.35,995.25"/>
    </edge>
    <edge id=":17_2" function="internal">
        <lane id=":17_2_0" index="0" speed="9.00" length="5.28" shape="1998.35,1004.75 1998.75,1001.95 1999.95,999.95 2000.05,999.89"/>
    </edge>
    <edge id=":17_12" function="internal">
        <lane id=":17_12_0" index="0" speed="9.00" length="5.04" shape="2000.05,999.89 2001.95,998.75 2004.75,998.35"/>
    </edge>
    <edge id=":17_3" function="internal">
        <lane id=":17_3_0" index="0" speed="15.50" length="5.00" shape="2004.75,1001.65 2003.39,1001.84 2002.43,1002.43 2001.84,1003.39 2001.65,1004.75"/>
    </edge>
    <edge id=":17_4" function="internal">
        <lane id=":17_4_0" index="0" speed="15.50" length="9.50" shape="2004.75,1001.65 1995.25,1001.65"/>
    </edge>
    <edge id=":17_5" function="internal">
        <lane id=":17_5_0" index="0" speed="15.00" length="5.28" shape="2004.75,1001.65 2001.95,1001.25 1999.95,1000.05 1999.89,999.95"/>
    </edge>
    <edge id=":17_13" function="internal">
        <lane id=":17_13_0" index="0" speed="15.00" length="5.04" shape="1999.89,999.95 1998.75,998.05 1998.35,995.25"/>
    </edge>
    <edge id=":17_6" function="internal">
        <lane id=":17_6_0" index="0" speed="16.50" length="5.00" shape="2001.65,995.25 2001.84,996.61 2002.43,997.57 2003.39,998.16 2004.75,998.35"/>
    </edge>
    <edge id=":17_7" function="internal">
        <lane id=":17_7_0" index="0" speed="24.00" length="9.50" shape="2001.65,995.25 2001.65,1004.75"/>
    </edge>
    <edge id=":17_8" function="internal">
        <lane id=":17_8_0" index="0" speed="24.00" length="5.28" shape="2001.65,995.25 2001.25,998.05 2000.05,1000.05 1999.95,1000.11"/>
    </edge>
    <edge id=":17_14" function="internal">
        <lane id=":17_14_0" index="0" speed="24.00" length="5.04" shape="1999.95,1000.11 1998.05,1001.25 1995.25,1001.65"/>
    </edge>
    <edge id=":17_9" function="internal">
        <lane id=":17_9_0" index="0" speed="13.50" length="5.00" shape="1995.25,998.35 1996.61,998.16 1997.57,997.58 1998.16,996.61 1998.35,995.25"/>
    </edge>
    <edge id=":17_10" function="internal">
        <lane id=":17_10_0" index="0" speed="6.50" length="9.50" shape="1995.25,998.35 2004.75,998.35"/>
    </edge>
    <edge id=":17_11" function="internal">
        <lane id=":17_11_0" index="0" speed="14.00" length="5.28" shape="1995.25,998.35 1998.05,998.75 2000.05,999.95 2000.11,1000.05"/>
    </edge>
    <edge id=":17_15" function="internal">
        <lane id=":17_15_0" index="0" speed="14.00" length="5.04" shape="2000.11,1000.05 2001.25,1001.95 2001.65,1004.75"/>
    </edge>
    <edge id=":18_0" function="internal">
        <lane id=":18_0_0" index="0" speed="16.00" length="5.00" shape="1998.35,1504.75 1998.16,1503.39 1997.57,1502.43 1996.61,1501.84 1995.25,1501.65"/>
    </edge>
    <edge id=":18_1" function="internal">
        <lane id=":18_1_0" index="0" speed="14.50" length="9.50" shape="1998.35,1504.75 1998.35,1495.25"/>
    </edge>
    <edge id=":18_2" function="internal">
        <lane id=":18_2_0" index="0" speed="17.50" length="5.28" shape="1998.35,1504.75 1998.75,1501.95 1999.95,1499.95 2000.05,1499.89"/>
    </edge>
    <edge id=":18_12" function="internal">
        <lane id=":18_12_0" index="0" speed="17.50" length="5.04" shape="2000.05,1499.89 2001.95,1498.75 2004.75,1498.35"/>
    </edge>
    <edge id=":18_3" function="internal">
        <lane id=":18_3_0" index="0" speed="5.50" length="5.00" shape="2004.75,1501.65 2003.39,1501.84 2002.43,1502.43 2001.84,1503.39 2001.65,1504.75"/>
    </edge>
    <edge id=":18_4" function="internal">
        <lane id=":18_4_0" index="0" speed="10.00" length="9.50" shape="2004.75,1501.65 1995.25,1501.65"/>
    </edge>
    <edge id=":18_5" function="internal">
        <lane id=":18_5_0" index="0" speed="8.50" length="5.28" shape="2004.75,1501.65 2001.95,1501.25 1999.95,1500.05 1999.89,1499.95"/>
    </edge>
    <edge id=":18_13" function="internal">
        <lane id=":18_13_0" index="0" speed="8.50" length="5.04" shape="1999.89,1499.95 1998.75,1498.05 1998.35,1495.25"/>
    </edge>
    <edge id=":18_6" function="internal">
        <lane id=":18_6_0" index="0" speed="19.50" length="5.00" shape="2001.65,1495.25 2001.84,1496.61 2002.43,1497.57 2003.39,1498.16 2004.75,1498.35"/>
    </edge>
    <edge id=":18_7" function="internal">
        <lane id=":18_7_0" index="0" speed="13.50" length="9.50" shape="2001.65,1495.25 2001.65,1504.75"/>
    </edge>
    <edge id=":18_8" function="internal">
        <lane id=":18_8_0" index="0" speed="18.00" length="5.28" shape="2001.65,1495.25 2001.25,1498.05 2000.05,1500.05 1999.95,1500.11"/>
    </edge>
    <edge id=":18_14" function="internal">
        <lane id=":18_14_0" index="0" speed="18.00" length="5.04" shape="1999.95,1500.11 1998.05,1501.25 1995.25,1501.65"/>
    </edge>
    <edge id=":18_9" function="internal">
        <lane id=":18_9_0" index="0" speed="15.50" length="5.00" shape="1995.25,1498.35 1996.61,1498.16 1997.57,1497.57 1998.16,1496.61 1998.35,1495.25"/>
    </edge>
    <edge id=":18_10" function="internal">
        <lane id=":18_10_0" index="0" speed="18.50" length="9.50" shape="1995.25,1498.35 2004.75,1498.35"/>
    </edge>
    <edge id=":18_11" function="internal">
        <lane id=":18_11_0" index="0" speed="12.50" length="5.28" shape="1995.25,1498.35 1998.05,1498.75 2000.05,1499.95 2000.11,1500.05"/>
    </edge>
    <edge id=":18_15" function="internal">