<routes>
        <vType id="car" accel="0.8" decel="4.5" sigma="0.5" length="5" minGap="2.5" maxSpeed="30" guiShape="passenger"/>
        
    <route id="r0" edges="29004 4003 3002 2027" />
    <vehicle id="v0" type="car" route="r0" depart="0" />
    <route id="r1" edges="24019 19018 18013 13012 12007 7002 2027" />
    <vehicle id="v1" type="car" route="r1" depart="1" />
    <route id="r2" edges="44006" />
    <vehicle id="v2" type="car" route="r2" depart="2" />
    <route id="r3" edges="37024 24019 19014 14009 9004 4029" />
    <vehicle id="v3" type="car" route="r3" depart="3" />
    <route id="r4" edges="8003 3002 2027" />
    <vehicle id="v4" type="car" route="r4" depart="4" />
    <route id="r5" edges="29004 4003 3002 2001 1026" />
    <vehicle id="v5" type="car" route="r5" depart="5" />
    <route id="r6" edges="21016 16017 17012 12007 7002 2027" />
    <vehicle id="v6" type="car" route="r6" depart="6" />
    <route id="r7" edges="11043" />
    <vehicle id="v7" type="car" route="r7" depart="6" />
    <route id="r8" edges="33015 15010 10005 5004 4029" />
    <vehicle id="v8" type="car" route="r8" depart="6" />
    <route id="r9" edges="40021" />
    <vehicle id="v9" type="car" route="r9" depart="8" />
    <route id="r10" edges="37024 24023 23022 22021 21016" />
    <vehicle id="v10" type="car" route="r10" depart="9" />
    <route id="r11" edges="32010" />
    <vehicle id="v11" type="car" route="r11" depart="12" />
    <route id="r12" edges="43011 11016" />
    <vehicle id="v12" type="car" route="r12" depart="14" />
    <route id="r13" edges="45001 1006 6007 7008 8009 9014 14015 15033" />
    <vehicle id="v13" type="car" route="r13" depart="17" />
    <route id="r14" edges="39022 22023 23038" />
    <vehicle id="v14" type="car" route="r14" depart="17" />
    <route id="r15" edges="32010 10005 5030" />
    <vehicle id="v15" type="car" route="r15" depart="19" />
    <route id="r16" edges="12017 17022 22039" />
    <vehicle id="v16" type="car" route="r16" depart="19" />
    <route id="r17" edges="28003 3008 8009 9010 10015 15020 20025 25035" />
    <vehicle id="v17" type="car" route="r17" depart="19" />
    <route id="r18" edges="16021 21041" />
    <vehicle id="v18" type="car" route="r18" depart="20" />
    <route id="r19" edges="19020 20034" />
    <vehicle id="v19" type="car" route="r19" depart="23" />
    <route id="r20" edges="1026" />
    <vehicle id="v20" type="car" route="r20" depart="24" />
    <route id="r21" edges="23022 22021 21016 16011" />
    <vehicle id="v21" type="car" route="r21" depart="24" />
    <route id="r22" edges="12011 11043" />
    <vehicle id="v22" type="car" route="r22" depart="24" />
    <route id="r23" edges="3004 4029" />
    <vehicle id="v23" type="car" route="r23" depart="25" />
    <route id="r24" edges="20025 25035" />
    <vehicle id="v24" type="car" route="r24" depart="27" />
    <route id="r25" edges="18023 23038" />
    <vehicle id="v25" type="car" route="r25" depart="27" />
    <route id="r26" edges="8007 7002 2001 1026" />
    <vehicle id="v26" type="car" route="r26" depart="30" />
    <route id="r27" edges="8007 7002 2001 1026" />
    <vehicle id="v27" type="car" route="r27" depart="30" />
    <route id="r28" edges="17018 18019 19014 14009 9010 10005 5031" />
    <vehicle id="v28" type="car" route="r28" depart="31" />
    <route id="r29" edges="18017 17016" />
    <vehicle id="v29" type="car" route="r29" depart="31" />
    <route id="r30" edges="23038" />
    <vehicle id="v30" type="car" route="r30" depart="33" />
    <route id="r31" edges="9008 8003 3002 2027" />
    <vehicle id="v31" type="car" route="r31" depart="35" />
    <route id="r32" edges="36025" />
    <vehicle id="v32" type="car" route="r32" depart="35" />
    <route id="r33" edges="14015" />
    <vehicle id="v33" type="car" route="r33" depart="37" />
    <route id="r34" edges="32010 10009 9004 4003 3002" />
    <vehicle id="v34" type="car" route="r34" depart="38" />
    <route id="r35" edges="37024" />
    <vehicle id="v35" type="car" route="r35" depart="40" />
    <route id="r36" edges="39022 22023 23024 24019 19020 20015 15010 10005 5030" />
    <vehicle id="v36" type="car" route="r36" depart="42" />
    <route id="r37" edges="12017 17022 22039" />
    <vehicle id="v37" type="car" route="r37" depart="42" />
    <route id="r38" edges="45001 1006 6011 11043" />
    <vehicle id="v38" type="car" route="r38" depart="42" />
    <route id="r39" edges="37024" />
    <vehicle id="v39" type="car" route="r39" depart="43" />
    <route id="r40" edges="5030" />
    <vehicle id="v40" type="car" route="r40" depart="47" />
    <route id="r41" edges="21016 16042" />
    <vehicle id="v41" type="car" route="r41" depart="47" />
    <route id="r42" edges="36025" />
    <vehicle id="v42" type="car" route="r42" depart="48" />
    <route id="r43" edges="10032" />
    <vehicle id="v43" type="car" route="r43" depart="48" />
    <route id="r44" edges="5010" />
    <vehicle id="v44" type="car" route="r44" depart="48" />
    <route id="r45" edges="28003 3004 4029" />
    <vehicle id="v45" type="car" route="r45" depart="49" />
    <route id="r46" edges="43011" />
    <vehicle id="v46" type="car" route="r46" depart="51" />
    <route id="r47" edges="1006 6011 11043" />
    <vehicle id="v47" type="car" route="r47" depart="51" />
    <route id="r48" edges="23022 22021 21041" />
    <vehicle id="v48" type="car" route="r48" depart="52" />
    <route id="r49" edges="45001" />
    <vehicle id="v49" type="car" route="r49" depart="53" />
    <route id="r50" edges="21041" />
    <vehicle id="v50" type="car" route="r50" depart="54" />
    <route id="r51" edges="35025 25024 24037" />
    <vehicle id="v51" type="car" route="r51" depart="55" />
    <route id="r52" edges="23024 24025 25036" />
    <vehicle id="v52" type="car" route="r52" depart="55" />
    <route id="r53" edges="20034" />
    <vehicle id="v53" type="car" route="r53" depart="56" />
    <route id="r54" edges="19020 20034" />
    <vehicle id="v54" type="car" route="r54" depart="59" />
    <route id="r55" edges="16021 21041" />
    <vehicle id="v55" type="car" route="r55" depart="59" />
    <route id="r56" edges="23024" />
    <vehicle id="v56" type="car" route="r56" depart="59" />
    <route id="r57" edges="39022 22023 23024 24037" />
    <vehicle id="v57" type="car" route="r57" depart="60" />
    <route id="r58" edges="44006 6011" />
    <vehicle id="v58" type="car" route="r58" depart="61" />
    <route id="r59" edges="13008 8009" />
    <vehicle id="v59" type="car" route="r59" depart="61" />
    <route id="r60" edges="45001" />
    <vehicle id="v60" type="car" route="r60" depart="63" />
    <route id="r61" edges="17016 16042" />
    <vehicle id="v61" type="car" route="r61" depart="63" />
    <route id="r62" edges="19018 18023 23038" />
    <vehicle id="v62" type="car" route="r62" depart="63" />
    <route id="r63" edges="20034" />
    <vehicle id="v63" type="car" route="r63" depart="64" />
    <route id="r64" edges="3008 8007" />
    <vehicle id="v64" type="car" route="r64" depart="65" />
    <route id="r65" edges="33015 15020 20034" />
    <vehicle id="v65" type="car" route="r65" depart="65" />
    <route id="r66" edges="37024 24025 25020 20034" />
    <vehicle id="v66" type="car" route="r66" depart="68" />
    <route id="r67" edges="3004 4005" />
    <vehicle id="v67" type="car" route="r67" depart="68" />
    <route id="r68" edges="24025 25020 20015 15010 10005" />
    <vehicle id="v68" type="car" route="r68" depart="69" />
    <route id="r69" edges="13014 14009 9010 10032" />
    <vehicle id="v69" type="car" route="r69" depart="71" />
    <route id="r70" edges="45001 1006 6044" />
    <vehicle id="v70" type="car" route="r70" depart="72" />
    <route id="r71" edges="11043" />
    <vehicle id="v71" type="car" route="r71" depart="72" />
    <route id="r72" edges="13012 12017" />
    <vehicle id="v72" type="car" route="r72" depart="73" />
    <route id="r73" edges="6007 7008 8009 9010 10005 5031" />
    <vehicle id="v73" type="car" route="r73" depart="73" />
    <route id="r74" edges="32010 10015 15020 20034" />
    <vehicle id="v74" type="car" route="r74" depart="75" />
    <route id="r75" edges="44006 6011 11043" />
    <vehicle id="v75" type="car" route="r75" depart="76" />
    <route id="r76" edges="23022 22021 21016 16042" />
    <vehicle id="v76" type="car" route="r76" depart="76" />
    <route id="r77" edges="34020" />
    <vehicle id="v77" type="car" route="r77" depart="77" />
    <route id="r78" edges="15010 10005 5031" />
    <vehicle id="v78" type="car" route="r78" depart="78" />
    <route id="r79" edges="20015 15010 10005 5031" />
    <vehicle id="v79" type="car" route="r79" depart="79" />
    <route id="r80" edges="16042" />
    <vehicle id="v80" type="car" route="r80" depart="79" />
    <route id="r81" edges="25024 24023 23018 18013 13008 8007 7006 6001 1026" />
    <vehicle id="v81" type="car" route="r81" depart="81" />
    <route id="r82" edges="30005 5004" />
    <vehicle id="v82" type="car" route="r82" depart="82" />
    <route id="r83" edges="35025 25024 24023 23022 22021" />
    <vehicle id="v83" type="car" route="r83" depart="84" />
    <route id="r84" edges="7006 6001 1026" />
    <vehicle id="v84" type="car" route="r84" depart="84" />
    <route id="r85" edges="10005 5030" />
    <vehicle id="v85" type="car" route="r85" depart="87" />
    <route id="r86" edges="20025 25036" />
    <vehicle id="v86" type="car" route="r86" depart="88" />
    <route id="r87" edges="22023 23024 24037" />
    <vehicle id="v87" type="car" route="r87" depart="88" />
    <route id="r88" edges="45001 1006 6011 11016 16021 21040" />
    <vehicle id="v88" type="car" route="r88" depart="89" />
    <route id="r89" edges="40021 21041" />
    <vehicle id="v89" type="car" route="r89" depart="91" />
    <route id="r90" edges="28003 3002 2027" />
    <vehicle id="v90" type="car" route="r90" depart="92" />
    <route id="r91" edges="2027" />
    <vehicle id="v91" type="car" route="r91" depart="93" />
    <route id="r92" edges="5031" />
    <vehicle id="v92" type="car" route="r92" depart="94" />
    <route id="r93" edges="20025 25024 24037" />
    <vehicle id="v93" type="car" route="r93" depart="94" />
    <route id="r94" edges="13012 12007 7002 2001" />
    <vehicle id="v94" type="car" route="r94" depart="95" />
    <route id="r95" edges="37024" />
    <vehicle id="v95" type="car" route="r95" depart="95" />
    <route id="r96" edges="11043" />
    <vehicle id="v96" type="car" route="r96" depart="95" />
    <route id="r97" edges="5031" />
    <vehicle id="v97" type="car" route="r97" depart="96" />
    <route id="r98" edges="11016 16042" />
    <vehicle id="v98" type="car" route="r98" depart="97" />
    <route id="r99" edges="29004 4005 5031" />
    <vehicle id="v99" type="car" route="r99" depart="97" />
    <route id="r100" edges="37024" />
    <vehicle id="v100" type="car" route="r100" depart="97" />
    <route id="r101" edges="4003 3002 2007 7012 12017 17016 16042" />
    <vehicle id="v101" type="car" route="r101" depart="98" />
    <route id="r102" edges="6011 11016 16017 17022 22023 23024 24037" />
    <vehicle id="v102" type="car" route="r102" depart="99" />
    <route id="r103" edges="5004 4029" />
    <vehicle id="v103" type="car" route="r103" depart="100" />
    <route id="r104" edges="15020 20025 25036" />
    <vehicle id="v104" type="car" route="r104" depart="101" />
    <route id="r105" edges="26001" />
    <vehicle id="v105" type="car" route="r105" depart="102" />
    <route id="r106" edges="10005 5031" />
    <vehicle id="v106" type="car" route="r106" depart="103" />
    <route id="r107" edges="12017 17022" />
    <vehicle id="v107" type="car" route="r107" depart="103" />
    <route id="r108" edges="12007 7008 8003 3004 4005 5031" />
    <vehicle id="v108" type="car" route="r108" depart="104" />
    <route id="r109" edges="37024" />
    <vehicle id="v109" type="car" route="r109" depart="104" />
    <route id="r110" edges="1026" />
    <vehicle id="v110" type="car" route="r110" depart="106" />
    <route id="r111" edges="15020 20025 25024 24037" />
    <vehicle id="v111" type="car" route="r111" depart="106" />
    <route id="r112" edges="7008 8009" />
    <vehicle id="v112" type="car" route="r112" depart="107" />
    <route id="r113" edges="24037" />
    <vehicle id="v113" type="car" route="r113" depart="107" />
    <route id="r114" edges="29004" />
    <vehicle id="v114" type="car" route="r114" depart="108" />
    <route id="r115" edges="26001" />
    <vehicle id="v115" type="car" route="r115" depart="108" />
    <route id="r116" edges="17012 12007 7002 2027" />
    <vehicle id="v116" type="car" route="r116" depart="109" />
    <route id="r117" edges="19024 24037" />
    <vehicle id="v117" type="car" route="r117" depart="110" />
    <route id="r118" edges="18017 17022 22021 21040" />
    <vehicle id="v118" type="car" route="r118" depart="111" />
    <route id="r119" edges="39022 22017 17016 16011 11043" />
    <vehicle id="v119" type="car" route="r119" depart="112" />
    <route id="r120" edges="1006 6011" />
    <vehicle id="v120" type="car" route="r120" depart="112" />
    <route id="r121" edges="3002 2027" />
    <vehicle id="v121" type="car" route="r121" depart="114" />
    <route id="r122" edges="14015 15010 10005 5031" />
    <vehicle id="v122" type="car" route="r122" depart="114" />
    <route id="r123" edges="18019 19020 20025" />
    <vehicle id="v123" type="car" route="r123" depart="119" />
    <route id="r124" edges="37024 24025 25035" />
    <vehicle id="v124" type="car" route="r124" depart="120" />
    <route id="r125" edges="22017 17012 12007 7002 2027" />
    <vehicle id="v125" type="car" route="r125" depart="120" />
    <route id="r126" edges="4009 9014" />
    <vehicle id="v126" type="car" route="r126" depart="123" />
    <route id="r127" edges="18013 13014 14015 15010" />
    <vehicle id="v127" type="car" route="r127" depart="123" />
    <route id="r128" edges="6001 1026" />
    <vehicle id="v128" type="car" route="r128" depart="125" />
    <route id="r129" edges="45001 1006 6011" />
    <vehicle id="v129" type="car" route="r129" depart="125" />
    <route id="r130" edges="36025 25020 20015 15014 14009 9008 8007 7002 2001" />
    <vehicle id="v130" type="car" route="r130" depart="127" />
    <route id="r131" edges="45001 1026" />
    <vehicle id="v131" type="car" route="r131" depart="127" />
    <route id="r132" edges="25024 24037" />
    <vehicle id="v132" type="car" route="r132" depart="130" />
    <route id="r133" edges="44006 6001 1026" />
    <vehicle id="v133" type="car" route="r133" depart="131" />
    <route id="r134" edges="17022 22039" />
    <vehicle id="v134" type="car" route="r134" depart="131" />
    <route id="r135" edges="31005 5004 4003 3002 2001" />
    <vehicle id="v135" type="car" route="r135" depart="132" />
    <route id="r136" edges="26001" />
    <vehicle id="v136" type="car" route="r136" depart="132" />
    <route id="r137" edges="17016 16042" />
    <vehicle id="v137" type="car" route="r137" depart="133" />
    <route id="r138" edges="8009 9010" />
    <vehicle id="v138" type="car" route="r138" depart="134" />
    <route id="r139" edges="42016 16011 11043" />
    <vehicle id="v139" type="car" route="r139" depart="135" />
    <route id="r140" edges="40021" />
    <vehicle id="v140" type="car" route="r140" depart="137" />
    <route id="r141" edges="29004 4009 9010 10015" />
    <vehicle id="v141" type="car" route="r141" depart="140" />
    <route id="r142" edges="30005 5004 4003 3002 2001 1026" />
    <vehicle id="v142" type="car" route="r142" depart="141" />
    <route id="r143" edges="44006 6001" />
    <vehicle id="v143" type="car" route="r143" depart="141" />
    <route id="r144" edges="1006 6011 11016 16021 21040" />
    <vehicle id="v144" type="car" route="r144" depart="143" />
    <route id="r145" edges="4005 5030" />
    <vehicle id="v145" type="car" route="r145" depart="144" />
    <route id="r146" edges="24023 23022" />
    <vehicle id="v146" type="car" route="r146" depart="145" />
    <route id="r147" edges="8009 9010 10005 5030" />
    <vehicle id="v147" type="car" route="r147" depart="145" />
    <route id="r148" edges="6011 11043" />
    <vehicle id="v148" type="car" route="r148" depart="145" />
    <route id="r149" edges="42016" />
    <vehicle id="v149" type="car" route="r149" depart="146" />
    <route id="r150" edges="17018 18013 13008 8009 9010 10005" />
    <vehicle id="v150" type="car" route="r150" depart="146" />
    <route id="r151" edges="34020 20015 15033" />
    <vehicle id="v151" type="car" route="r151" depart="146" />
    <route id="r152" edges="34020 20015" />
    <vehicle id="v152" type="car" route="r152" depart="146" />
    <route id="r153" edges="26001 1006 6007" />
    <vehicle id="v153" type="car" route="r153" depart="147" />
    <route id="r154" edges="40021 21041" />
    <vehicle id="v154" type="car" route="r154" depart="148" />
    <route id="r155" edges="3004 4005 5031" />
    <vehicle id="v155" type="car" route="r155" depart="148" />
    <route id="r156" edges="36025 25020 20019 19018 18013 13008 8003 3002 2027" />
    <vehicle id="v156" type="car" route="r156" depart="154" />
    <route id="r157" edges="27002 2007 7012" />
    <vehicle id="v157" type="car" route="r157" depart="154" />
    <route id="r158" edges="45001 1026" />
    <vehicle id="v158" type="car" route="r158" depart="154" />
    <route id="r159" edges="34020 20015 15014 14009 9008 8007 7002" />
    <vehicle id="v159" type="car" route="r159" depart="156" />
    <route id="r160" edges="14015 15010 10005" />
    <vehicle id="v160" type="car" route="r160" depart="158" />
    <route id="r161" edges="33015 15020 20025" />
    <vehicle id="v161" type="car" route="r161" depart="158" />
    <route id="r162" edges="4009 9008 8007 7006 6011 11043" />
    <vehicle id="v162" type="car" route="r162" depart="160" />
    <route id="r163" edges="16042" />
    <vehicle id="v163" type="car" route="r163" depart="161" />
    <route id="r164" edges="1002 2007" />
    <vehicle id="v164" type="car" route="r164" depart="163" />
    <route id="r165" edges="25020 20034" />
    <vehicle id="v165" type="car" route="r165" depart="163" />
    <route id="r166" edges="25036" />
    <vehicle id="v166" type="car" route="r166" depart="163" />
    <route id="r167" edges="7006 6044" />
    <vehicle id="v167" type="car" route="r167" depart="164" />
    <route id="r168" edges="30005 5031" />
    <vehicle id="v168" type="car" route="r168" depart="166" />
    <route id="r169" edges="22039" />
    <vehicle id="v169" type="car" route="r169" depart="168" />
    <route id="r170" edges="13018" />
    <vehicle id="v170" type="car" route="r170" depart="169" />
    <route id="r171" edges="31005 5010 10032" />
    <vehicle id="v171" type="car" route="r171" depart="170" />
    <route id="r172" edges="24037" />
    <vehicle id="v172" type="car" route="r172" depart="172" />
    <route id="r173" edges="22023 23018 18013" />
    <vehicle id="v173" type="car" route="r173" depart="174" />
    <route id="r174" edges="33015 15020 20025 25024 24037" />
    <vehicle id="v174" type="car" route="r174" depart="175" />
    <route id="r175" edges="3028" />
    <vehicle id="v175" type="car" route="r175" depart="177" />
    <route id="r176" edges="12013 13014 14015 15010 10005 5030" />
    <vehicle id="v176" type="car" route="r176" depart="179" />
    <route id="r177" edges="18023 23038" />
    <vehicle id="v177" type="car" route="r177" depart="180" />
    <route id="r178" edges="45001 1026" />
    <vehicle id="v178" type="car" route="r178" depart="182" />
    <route id="r179" edges="37024 24025 25020 20015 15010 10005 5030" />
    <vehicle id="v179" type="car" route="r179" depart="186" />
    <route id="r180" edges="28003 3004 4029" />
    <vehicle id="v180" type="car" route="r180" depart="187" />
    <route id="r181" edges="34020" />
    <vehicle id="v181" type="car" route="r181" depart="188" />
    <route id="r182" edges="36025 25035" />
    <vehicle id="v182" type="car" route="r182" depart="189" />
    <route id="r183" edges="3002 2007 7006 6011 11043" />
    <vehicle id="v183" type="car" route="r183" depart="191" />
    <route id="r184" edges="14015 15010 10005 5031" />
    <vehicle id="v184" type="car" route="r184" depart="193" />
    <route id="r185" edges="12007 7002 2027" />
    <vehicle id="v185" type="car" route="r185" depart="194" />
    <route id="r186" edges="12017 17022 22039" />
    <vehicle id="v186" type="car" route="r186" depart="195" />
    <route id="r187" edges="43011" />
    <vehicle id="v187" type="car" route="r187" depart="196" />
    <route id="r188" edges="44006 6007 7002 2027" />
    <vehicle id="v188" type="car" route="r188" depart="197" />
    <route id="r189" edges="20025 25035" />
    <vehicle id="v189" type="car" route="r189" depart="198" />
    <route id="r190" edges="14009 9010" />
    <vehicle id="v190" type="car" route="r190" depart="200" />
    <route id="r191" edges="29004 4003 3002 2007 7012 12011 11016 16042" />
    <vehicle id="v191" type="car" route="r191" depart="201" />
    <route id="r192" edges="38023 23022 22021 21041" />
    <vehicle id="v192" type="car" route="r192" depart="201" />
    <route id="r193" edges="18017 17016 16042" />
    <vehicle id="v193" type="car" route="r193" depart="201" />
    <route id="r194" edges="31005" />
    <vehicle id="v194" type="car" route="r194" depart="202" />
    <route id="r195" edges="41021 21040" />
    <vehicle id="v195" type="car" route="r195" depart="203" />
    <route id="r196" edges="9008 8007 7006 6011 11043" />
    <vehicle id="v196" type="car" route="r196" depart="204" />
    <route id="r197" edges="41021 21016 16011 11006 6001 1045" />
    <vehicle id="v197" type="car" route="r197" depart="205" />
    <route id="r198" edges="25036" />
    <vehicle id="v198" type="car" route="r198" depart="205" />
    <route id="r199" edges="14015 15020 20034" />
    <vehicle id="v199" type="car" route="r199" depart="208" />
    <route id="r200" edges="25020 20015 15010 10005 5031" />
    <vehicle id="v200" type="car" route="r200" depart="209" />
    <route id="r201" edges="43011" />
    <vehicle id="v201" type="car" route="r201" depart="209" />
    <route id="r202" edges="36025 25020 20015 15010 10009 9008 8007" />
    <vehicle id="v202" type="car" route="r202" depart="211" />
    <route id="r203" edges="30005 5010 10032" />
    <vehicle id="v203" type="car" route="r203" depart="211" />
    <route id="r204" edges="7006 6001 1045" />
    <vehicle id="v204" type="car" route="r204" depart="211" />
    <route id="r205" edges="20015 15010 10005" />
    <vehicle id="v205" type="car" route="r205" depart="212" />
    <route id="r206" edges="22023 23024 24037" />
    <vehicle id="v206" type="car" route="r206" depart="212" />
    <route id="r207" edges="24025 25020 20034" />
    <vehicle id="v207" type="car" route="r207" depart="213" />
    <route id="r208" edges="25035" />
    <vehicle id="v208" type="car" route="r208" depart="213" />
    <route id="r209" edges="5030" />
    <vehicle id="v209" type="car" route="r209" depart="214" />
    <route id="r210" edges="21040" />
    <vehicle id="v210" type="car" route="r210" depart="215" />
    <route id="r211" edges="9010" />
    <vehicle id="v211" type="car" route="r211" depart="218" />
    <route id="r212" edges="18017 17016" />
    <vehicle id="v212" type="car" route="r212" depart="221" />
    <route id="r213" edges="4009 9010 10015 15020 20025 25035" />
    <vehicle id="v213" type="car" route="r213" depart="223" />
    <route id="r214" edges="5030" />
    <vehicle id="v214" type="car" route="r214" depart="223" />
    <route id="r215" edges="3008 8009" />
    <vehicle id="v215" type="car" route="r215" depart="224" />
    <route id="r216" edges="44006 6011 11016 16021" />
    <vehicle id="v216" type="car" route="r216" depart="224" />
    <route id="r217" edges="29004 4003 3002 2001" />
    <vehicle id="v217" type="car" route="r217" depart="225" />
    <route id="r218" edges="16017 17012 12013" />
    <vehicle id="v218" type="car" route="r218" depart="225" />
    <route id="r219" edges="20034" />
    <vehicle id="v219" type="car" route="r219" depart="225" />
    <route id="r220" edges="20025 25035" />
    <vehicle id="v220" type="car" route="r220" depart="226" />
    <route id="r221" edges="34020 20025 25036" />
    <vehicle id="v221" type="car" route="r221" depart="227" />
    <route id="r222" edges="9014 14019 19018 18017 17016 16042" />
    <vehicle id="v222" type="car" route="r222" depart="229" />
    <route id="r223" edges="18017 17016 16042" />
    <vehicle id="v223" type="car" route="r223" depart="229" />
    <route id="r224" edges="9008 8007 7006 6001 1045" />
    <vehicle id="v224" type="car" route="r224" depart="229" />
    <route id="r225" edges="16017 17018 18023 23038" />
    <vehicle id="v225" type="car" route="r225" depart="230" />
    <route id="r226" edges="32010 10005 5031" />
    <vehicle id="v226" type="car" route="r226" depart="233" />
    <route id="r227" edges="6001 1026" />
    <vehicle id="v227" type="car" route="r227" depart="233" />
    <route id="r228" edges="10015 15020 20019 19024 24037" />
    <vehicle id="v228" type="car" route="r228" depart="235" />
    <route id="r229" edges="16011 11012 12007 7008 8009 9010 10005 5030" />
    <vehicle id="v229" type="car" route="r229" depart="235" />
    <route id="r230" edges="22039" />
    <vehicle id="v230" type="car" route="r230" depart="236" />
    <route id="r231" edges="38023 23022 22017 17012 12007 7002" />
    <vehicle id="v231" type="car" route="r231" depart="237" />
    <route id="r232" edges="11043" />
    <vehicle id="v232" type="car" route="r232" depart="238" />
    <route id="r233" edges="18013 13014 14015 15010 10032" />
    <vehicle id="v233" type="car" route="r233" depart="241" />
    <route id="r234" edges="29004 4003" />
    <vehicle id="v234" type="car" route="r234" depart="241" />
    <route id="r235" edges="21016 16017 17012" />
    <vehicle id="v235" type="car" route="r235" depart="242" />
    <route id="r236" edges="24037" />
    <vehicle id="v236" type="car" route="r236" depart="242" />
    <route id="r237" edges="37024 24019" />
    <vehicle id="v237" type="car" route="r237" depart="243" />
    <route id="r238" edges="45001 1026" />
    <vehicle id="v238" type="car" route="r238" depart="244" />
    <route id="r239" edges="21016 16011 11012 12007" />
    <vehicle id="v239" type="car" route="r239" depart="245" />
    <route id="r240" edges="30005 5031" />
    <vehicle id="v240" type="car" route="r240" depart="245" />
    <route id="r241" edges="38023 23018 18013 13012 12007 7002 2001 1026" />
    <vehicle id="v241" type="car" route="r241" depart="245" />
    <route id="r242" edges="12011 11043" />
    <vehicle id="v242" type="car" route="r242" depart="246" />
    <route id="r243" edges="32010 10005 5030" />
    <vehicle id="v243" type="car" route="r243" depart="246" />
    <route id="r244" edges="14009 9004 4029" />
    <vehicle id="v244" type="car" route="r244" depart="248" />
    <route id="r245" edges="32010" />
    <vehicle id="v245" type="car" route="r245" depart="250" />
    <route id="r246" edges="12017 17022 22021 21040" />
    <vehicle id="v246" type="car" route="r246" depart="250" />
    <route id="r247" edges="22023 23038" />
    <vehicle id="v247" type="car" route="r247" depart="250" />
    <route id="r248" edges="29004 4003 3008 8007 7006 6011 11043" />
    <vehicle id="v248" type="car" route="r248" depart="250" />
    <route id="r249" edges="25020 20034" />
    <vehicle id="v249" type="car" route="r249" depart="251" />
    <route id="r250" edges="44006" />
    <vehicle id="v250" type="car" route="r250" depart="251" />
    <route id="r251" edges="34020 20015 15014 14009 9008 8007 7006" />
    <vehicle id="v251" type="car" route="r251" depart="254" />
    <route id="r252" edges="34020 20025 25036" />
    <vehicle id="v252" type="car" route="r252" depart="254" />
    <route id="r253" edges="37024" />
    <vehicle id="v253" type="car" route="r253" depart="255" />
    <route id="r254" edges="4005 5030" />
    <vehicle id="v254" type="car" route="r254" depart="255" />
    <route id="r255" edges="17016 16042" />
    <vehicle id="v255" type="car" route="r255" depart="261" />
    <route id="r256" edges="24025 25036" />
    <vehicle id="v256" type="car" route="r256" depart="263" />
    <route id="r257" edges="19020 20034" />
    <vehicle id="v257" type="car" route="r257" depart="264" />
    <route id="r258" edges="19020 20034" />
    <vehicle id="v258" type="car" route="r258" depart="265" />
    <route id="r259" edges="28003 3002 2027" />
    <vehicle id="v259" type="car" route="r259" depart="265" />
    <route id="r260" edges="20015 15033" />
    <vehicle id="v260" type="car" route="r260" depart="266" />
    <route id="r261" edges="26001" />
    <vehicle id="v261" type="car" route="r261" depart="267" />
    <route id="r262" edges="10015 15020 20034" />
    <vehicle id="v262" type="car" route="r262" depart="267" />
    <route id="r263" edges="19020 20025 25035" />
    <vehicle id="v263" type="car" route="r263" depart="268" />
    <route id="r264" edges="5030" />
    <vehicle id="v264" type="car" route="r264" depart="268" />
    <route id="r265" edges="35025 25024" />
    <vehicle id="v265" type="car" route="r265" depart="269" />
    <route id="r266" edges="20034" />
    <vehicle id="v266" type="car" route="r266" depart="273" />
    <route id="r267" edges="10005 5031" />
    <vehicle id="v267" type="car" route="r267" depart="279" />
    <route id="r268" edges="9008" />
    <vehicle id="v268" type="car" route="r268" depart="279" />
    <route id="r269" edges="43011" />
    <vehicle id="v269" type="car" route="r269" depart="280" />
    <route id="r270" edges="6001 1026" />
    <vehicle id="v270" type="car" route="r270" depart="282" />
    <route id="r271" edges="7012 12017 17016 16042" />