<?xml version="1.0" encoding="iso-8859-1"?>
<connections xmlns:xsi="http://www.w3.org/2001/XMLSchema-instance" 
xsi:noNamespaceSchemaLocation="http://sumo.dlr.de/xsd/connections_file.xsd">
    <connection from="2007" to="7008"/>
    <connection from="2007" to="7012"/>
    <connection from="2007" to="7006"/>
    <connection from="8007" to="7012"/>
    <connection from="8007" to="7006"/>
    <connection from="8007" to="7002"/>
    <connection from="12007" to="7006"/>
    <connection from="12007" to="7002"/>
    <connection from="12007" to="7008"/>
    <connection from="6007" to="7002"/>
    <connection from="6007" to="7008"/>
    <connection from="6007" to="7012"/>
    <connection from="3008" to="8009"/>
    <connection from="3008" to="8013"/>
    <connection from="3008" to="8007"/>
    <connection from="9008" to="8013"/>
    <connection from="9008" to="8007"/>
    <connection from="9008" to="8003"/>
    <connection from="13008" to="8007"/>
    <connection from="13008" to="8003"/>
    <connection from="13008" to="8009"/>
    <connection from="7008" to="8003"/>
    <connection from="7008" to="8009"/>
    <connection from="7008" to="8013"/>
    <connection from="4009" to="9010"/>
    <connection from="4009" to="9014"/>
    <connection from="4009" to="9008"/>
    <connection from="10009" to="9014"/>
    <connection from="10009" to="9008"/>
    <connection from="10009" to="9004"/>
    <connection from="14009" to="9008"/>
    <connection from="14009" to="9004"/>
    <connection from="14009" to="9010"/>
    <connection from="8009" to="9004"/>
    <connection from="8009" to="9010"/>
    <connection from="8009" to="9014"/>
    <connection from="7012" to="12013"/>
    <connection from="7012" to="12017"/>
    <connection from="7012" to="12011"/>
    <connection from="13012" to="12017"/>
    <connection from="13012" to="12011"/>
    <connection from="13012" to="12007"/>
    <connection from="17012" to="12011"/>
    <connection from="17012" to="12007"/>
    <connection from="17012" to="12013"/>
    <connection from="11012" to="12007"/>
    <connection from="11012" to="12013"/>
    <connection from="11012" to="12017"/>
    <connection from="8013" to="13014"/>
    <connection from="8013" to="13018"/>
    <connection from="8013" to="13012"/>
    <connection from="14013" to="13018"/>
    <connection from="14013" to="13012"/>
    <connection from="14013" to="13008"/>
    <connection from="18013" to="13012"/>
    <connection from="18013" to="13008"/>
    <connection from="18013" to="13014"/>
    <connection from="12013" to="13008"/>
    <connection from="12013" to="13014"/>
    <connection from="12013" to="13018"/>
    <connection from="9014" to="14015"/>
    <connection from="9014" to="14019"/>
    <connection from="9014" to="14013"/>
    <connection from="15014" to="14019"/>
    <connection from="15014" to="14013"/>
    <connection from="15014" to="14009"/>
    <connection from="19014" to="14013"/>
    <connection from="19014" to="14009"/>
    <connection from="19014" to="14015"/>
    <connection from="13014" to="14009"/>
    <connection from="13014" to="14015"/>
    <connection from="13014" to="14019"/>
    <connection from="12017" to="17018"/>
    <connection from="12017" to="17022"/>
    <connection from="12017" to="17016"/>
    <connection from="18017" to="17022"/>
    <connection from="18017" to="17016"/>
    <connection from="18017" to="17012"/>
    <connection from="22017" to="17016"/>
    <connection from="22017" to="17012"/>
    <connection from="22017" to="17018"/>
    <connection from="16017" to="17012"/>
    <connection from="16017" to="17018"/>
    <connection from="16017" to="17022"/>
    <connection from="13018" to="18019"/>
    <connection from="13018" to="18023"/>
    <connection from="13018" to="18017"/>
    <connection from="19018" to="18023"/>
    <connection from="19018" to="18017"/>
    <connection from="19018" to="18013"/>
    <connection from="23018" to="18017"/>
    <connection from="23018" to="18013"/>
    <connection from="23018" to="18019"/>
    <connection from="17018" to="18013"/>
    <connection from="17018" to="18019"/>
    <connection from="17018" to="18023"/>
    <connection from="14019" to="19020"/>
    <connection from="14019" to="19024"/>
    <connection from="14019" to="19018"/>
    <connection from="20019" to="19024"/>
    <connection from="20019" to="19018"/>
    <connection from="20019" to="19014"/>
    <connection from="24019" to="19018"/>
    <connection from="24019" to="19014"/>
    <connection from="24019" to="19020"/>
    <connection from="18019" to="19014"/>
    <connection from="18019" to="19020"/>
    <connection from="18019" to="19024"/>
    <connection from="26001" to="1002"/>
    <connection from="26001" to="1006"/>
    <connection from="26001" to="1045"/>
    <connection from="2001" to="1006"/>
    <connection from="2001" to="1045"/>
    <connection from="2001" to="1026"/>
    <connection from="6001" to="1045"/>
    <connection from="6001" to="1026"/>
    <connection from="6001" to="1002"/>
    <connection from="45001" to="1026"/>
    <connection from="45001" to="1002"/>
    <connection from="45001" to="1006"/>
    <connection from="30005" to="5031"/>
    <connection from="30005" to="5010"/>
    <connection from="30005" to="5004"/>
    <connection from="31005" to="5010"/>
    <connection from="31005" to="5004"/>
    <connection from="31005" to="5030"/>
    <connection from="10005" to="5004"/>
    <connection from="10005" to="5030"/>
    <connection from="10005" to="5031"/>
    <connection from="4005" to="5030"/>
    <connection from="4005" to="5031"/>
    <connection from="4005" to="5010"/>
    <connection from="20025" to="25035"/>
    <connection from="20025" to="25036"/>
    <connection from="20025" to="25024"/>
    <connection from="35025" to="25036"/>
    <connection from="35025" to="25024"/>
    <connection from="35025" to="25020"/>
    <connection from="36025" to="25024"/>
    <connection from="36025" to="25020"/>
    <connection from="36025" to="25035"/>
    <connection from="24025" to="25020"/>
    <connection from="24025" to="25035"/>
    <connection from="24025" to="25036"/>
    <connection from="16021" to="21022"/>
    <connection from="16021" to="21040"/>
    <connection from="16021" to="21041"/>
    <connection from="22021" to="21040"/>
    <connection from="22021" to="21041"/>
    <connection from="22021" to="21016"/>
    <connection from="40021" to="21041"/>
    <connection from="40021" to="21016"/>
    <connection from="40021" to="21022"/>
    <connection from="41021" to="21016"/>
    <connection from="41021" to="21022"/>
    <connection from="41021" to="21040"/>
    <connection from="27002" to="2003"/>
    <connection from="27002" to="2007"/>
    <connection from="27002" to="2001"/>
    <connection from="3002" to="2007"/>
    <connection from="3002" to="2001"/>
    <connection from="3002" to="2027"/>
    <connection from="7002" to="2001"/>
    <connection from="7002" to="2027"/>
    <connection from="7002" to="2003"/>
    <connection from="1002" to="2027"/>
    <connection from="1002" to="2003"/>
    <connection from="1002" to="2007"/>
    <connection from="5010" to="10032"/>
    <connection from="5010" to="10015"/>
    <connection from="5010" to="10009"/>
    <connection from="32010" to="10015"/>
    <connection from="32010" to="10009"/>
    <connection from="32010" to="10005"/>
    <connection from="15010" to="10009"/>
    <connection from="15010" to="10005"/>
    <connection from="15010" to="10032"/>
    <connection from="9010" to="10005"/>
    <connection from="9010" to="10032"/>
    <connection from="9010" to="10015"/>
    <connection from="19024" to="24025"/>
    <connection from="19024" to="24037"/>
    <connection from="19024" to="24023"/>
    <connection from="25024" to="24037"/>
    <connection from="25024" to="24023"/>
    <connection from="25024" to="24019"/>
    <connection from="37024" to="24023"/>
    <connection from="37024" to="24019"/>
    <connection from="37024" to="24025"/>
    <connection from="23024" to="24019"/>
    <connection from="23024" to="24025"/>
    <connection from="23024" to="24037"/>
    <connection from="1006" to="6007"/>
    <connection from="1006" to="6011"/>
    <connection from="1006" to="6044"/>
    <connection from="7006" to="6011"/>
    <connection from="7006" to="6044"/>
    <connection from="7006" to="6001"/>
    <connection from="11006" to="6044"/>
    <connection from="11006" to="6001"/>
    <connection from="11006" to="6007"/>
    <connection from="44006" to="6001"/>
    <connection from="44006" to="6007"/>
    <connection from="44006" to="6011"/>
    <connection from="28003" to="3004"/>
    <connection from="28003" to="3008"/>
    <connection from="28003" to="3002"/>
    <connection from="4003" to="3008"/>
    <connection from="4003" to="3002"/>
    <connection from="4003" to="3028"/>
    <connection from="8003" to="3002"/>
    <connection from="8003" to="3028"/>
    <connection from="8003" to="3004"/>
    <connection from="2003" to="3028"/>
    <connection from="2003" to="3004"/>
    <connection from="2003" to="3008"/>
    <connection from="10015" to="15033"/>
    <connection from="10015" to="15020"/>
    <connection from="10015" to="15014"/>
    <connection from="33015" to="15020"/>
    <connection from="33015" to="15014"/>
    <connection from="33015" to="15010"/>
    <connection from="20015" to="15014"/>
    <connection from="20015" to="15010"/>
    <connection from="20015" to="15033"/>
    <connection from="14015" to="15010"/>
    <connection from="14015" to="15033"/>
    <connection from="14015" to="15020"/>
    <connection from="18023" to="23024"/>
    <connection from="18023" to="23038"/>
    <connection from="18023" to="23022"/>
    <connection from="24023" to="23038"/>
    <connection from="24023" to="23022"/>
    <connection from="24023" to="23018"/>
    <connection from="38023" to="23022"/>
    <connection from="38023" to="23018"/>
    <connection from="38023" to="23024"/>
    <connection from="22023" to="23018"/>
    <connection from="22023" to="23024"/>
    <connection from="22023" to="23038"/>
    <connection from="6011" to="11012"/>
    <connection from="6011" to="11016"/>
    <connection from="6011" to="11043"/>
    <connection from="12011" to="11016"/>
    <connection from="12011" to="11043"/>
    <connection from="12011" to="11006"/>
    <connection from="16011" to="11043"/>
    <connection from="16011" to="11006"/>
    <connection from="16011" to="11012"/>
    <connection from="43011" to="11006"/>
    <connection from="43011" to="11012"/>
    <connection from="43011" to="11016"/>
    <connection from="29004" to="4005"/>
    <connection from="29004" to="4009"/>
    <connection from="29004" to="4003"/>
    <connection from="5004" to="4009"/>
    <connection from="5004" to="4003"/>
    <connection from="5004" to="4029"/>
    <connection from="9004" to="4003"/>
    <connection from="9004" to="4029"/>
    <connection from="9004" to="4005"/>
    <connection from="3004" to="4029"/>
    <connection from="3004" to="4005"/>
    <connection from="3004" to="4009"/>
    <connection from="15020" to="20034"/>
    <connection from="15020" to="20025"/>
    <connection from="15020" to="20019"/>
    <connection from="34020" to="20025"/>
    <connection from="34020" to="20019"/>
    <connection from="34020" to="20015"/>
    <connection from="25020" to="20019"/>
    <connection from="25020" to="20015"/>
    <connection from="25020" to="20034"/>
    <connection from="19020" to="20015"/>
    <connection from="19020" to="20034"/>
    <connection from="19020" to="20025"/>
    <connection from="17022" to="22023"/>
    <connection from="17022" to="22039"/>
    <connection from="17022" to="22021"/>
    <connection from="23022" to="22039"/>
    <connection from="23022" to="22021"/>
    <connection from="23022" to="22017"/>
    <connection from="39022" to="22021"/>
    <connection from="39022" to="22017"/>
    <connection from="39022" to="22023"/>
    <connection from="21022" to="22017"/>
    <connection from="21022" to="22023"/>
    <connection from="21022" to="22039"/>
    <connection from="11016" to="16017"/>
    <connection from="11016" to="16021"/>
    <connection from="11016" to="16042"/>
    <connection from="17016" to="16021"/>
    <connection from="17016" to="16042"/>
    <connection from="17016" to="16011"/>
    <connection from="21016" to="16042"/>
    <connection from="21016" to="16011"/>
    <connection from="21016" to="16017"/>
    <connection from="42016" to="16011"/>
    <connection from="42016" to="16017"/>
    <connection from="42016" to="16021"/>
</connections>
